<?xml version="1.0" encoding="UTF-8"?>

<!-- generated on 2021-05-11 19:05:34 by Eclipse SUMO duarouter Version 1.9.1
<configuration xmlns:xsi="http://www.w3.org/2001/XMLSchema-instance" xsi:noNamespaceSchemaLocation="http://sumo.dlr.de/xsd/duarouterConfiguration.xsd">

    <input>
        <net-file value="/home/chris/Documents/STUDIA/Praca_mgr/V2X/2021-05-11-19-05-23/osm.net.xml"/>
        <route-files value="/home/chris/Documents/STUDIA/Praca_mgr/V2X/2021-05-11-19-05-23/osm.passenger.trips.xml"/>
    </input>

    <output>
        <output-file value="/home/chris/Documents/STUDIA/Praca_mgr/V2X/2021-05-11-19-05-23/osm.passenger.trips.xml.tmp"/>
        <write-trips value="true"/>
    </output>

    <time>
        <begin value="0"/>
        <end value="3600"/>
    </time>

    <report>
        <no-warnings value="true"/>
        <ignore-errors value="true"/>
        <no-step-log value="true"/>
    </report>

</configuration>
-->

<routes xmlns:xsi="http://www.w3.org/2001/XMLSchema-instance" xsi:noNamespaceSchemaLocation="http://sumo.dlr.de/xsd/routes_file.xsd">
    <vType id="veh_passenger" vClass="passenger"/>
    <trip id="veh4" type="veh_passenger" depart="33.87" departLane="best" departSpeed="max" from="178457350" to="26020081"/>
    <trip id="veh6" type="veh_passenger" depart="50.80" departLane="best" departSpeed="max" from="178457350" to="262572765"/>
    <trip id="veh10" type="veh_passenger" depart="84.66" departLane="best" from="5173586" to="197708377"/>
    <trip id="veh15" type="veh_passenger" depart="127.00" departLane="best" departSpeed="max" from="178457350" to="178860661"/>
    <trip id="veh19" type="veh_passenger" depart="160.86" departLane="best" departSpeed="max" from="197597320" to="178457351"/>
    <trip id="veh20" type="veh_passenger" depart="169.33" departLane="best" departSpeed="max" from="178457350" to="5081224"/>
    <trip id="veh26" type="veh_passenger" depart="220.13" departLane="best" departSpeed="max" from="5080499" to="372965838"/>
    <trip id="veh28" type="veh_passenger" depart="237.06" departLane="best" from="197597317" to="178860661"/>
    <trip id="veh31" type="veh_passenger" depart="262.46" departLane="best" departSpeed="max" from="29920364#0" to="201749095"/>
    <trip id="veh35" type="veh_passenger" depart="296.32" departLane="best" from="198512378#1" to="178457351"/>
    <trip id="veh63" type="veh_passenger" depart="533.38" departLane="best" departSpeed="max" from="178457350" to="307859093"/>
    <trip id="veh68" type="veh_passenger" depart="575.71" departLane="best" departSpeed="max" from="5080499" to="178457351"/>
    <trip id="veh71" type="veh_passenger" depart="601.11" departLane="best" departSpeed="max" from="178457350" to="5080504"/>
    <trip id="veh75" type="veh_passenger" depart="634.98" departLane="best" departSpeed="max" from="5080499" to="174153258"/>
    <trip id="veh79" type="veh_passenger" depart="668.84" departLane="best" from="23309368" to="245224795"/>
    <trip id="veh81" type="veh_passenger" depart="685.78" departLane="best" from="26020082" to="307859093"/>
    <trip id="veh86" type="veh_passenger" depart="728.11" departLane="best" departSpeed="max" from="25896068#0" to="41056557#5"/>
    <trip id="veh91" type="veh_passenger" depart="770.44" departLane="best" departSpeed="max" from="5080499" to="178457351"/>
    <trip id="veh92" type="veh_passenger" depart="778.91" departLane="best" departSpeed="max" from="262572766" to="262572773"/>
    <trip id="veh96" type="veh_passenger" depart="812.77" departLane="best" departSpeed="max" from="29920364#0" to="178860661"/>
    <trip id="veh98" type="veh_passenger" depart="829.70" departLane="best" departSpeed="max" from="178457350" to="5081224"/>
    <trip id="veh102" type="veh_passenger" depart="863.57" departLane="best" from="422438908" to="178860661"/>
    <trip id="veh103" type="veh_passenger" depart="872.04" departLane="best" departSpeed="max" from="29920364#0" to="5081224"/>
    <trip id="veh104" type="veh_passenger" depart="880.50" departLane="best" from="-41056557#4" to="167997065#1"/>
    <trip id="veh106" type="veh_passenger" depart="897.43" departLane="best" departSpeed="max" from="178457350" to="262572765"/>
    <trip id="veh107" type="veh_passenger" depart="905.90" departLane="best" from="308478638" to="178457351"/>
    <trip id="veh108" type="veh_passenger" depart="914.37" departLane="best" departSpeed="max" from="29920364#0" to="178860661"/>
    <trip id="veh113" type="veh_passenger" depart="956.70" departLane="best" departSpeed="max" from="29920364#0" to="178860661"/>
    <trip id="veh120" type="veh_passenger" depart="1015.96" departLane="best" from="197597317" to="4840731"/>
    <trip id="veh121" type="veh_passenger" depart="1024.43" departLane="best" from="5080503" to="178457351"/>
    <trip id="veh129" type="veh_passenger" depart="1092.16" departLane="best" from="422438908" to="178860661"/>
    <trip id="veh135" type="veh_passenger" depart="1142.96" departLane="best" from="5173589" to="178860661"/>
    <trip id="veh136" type="veh_passenger" depart="1151.43" departLane="best" departSpeed="max" from="29920364#0" to="201749095"/>
    <trip id="veh137" type="veh_passenger" depart="1159.89" departLane="best" from="90158067" to="26020081"/>
    <trip id="veh144" type="veh_passenger" depart="1219.16" departLane="best" departSpeed="max" from="178457350" to="307859093"/>
    <trip id="veh152" type="veh_passenger" depart="1286.89" departLane="best" from="201749048" to="178860661"/>
    <trip id="veh153" type="veh_passenger" depart="1295.35" departLane="best" from="5173580" to="307859093"/>
    <trip id="veh161" type="veh_passenger" depart="1363.08" departLane="best" departSpeed="max" from="29920364#0" to="197708377"/>
    <trip id="veh163" type="veh_passenger" depart="1380.02" departLane="best" departSpeed="max" from="29920364#0" to="178457351"/>
    <trip id="veh168" type="veh_passenger" depart="1422.35" departLane="best" from="174153256" to="307859093"/>
    <trip id="veh177" type="veh_passenger" depart="1498.55" departLane="best" from="4840731" to="26020081"/>
    <trip id="veh186" type="veh_passenger" depart="1574.74" departLane="best" departSpeed="max" from="178457350" to="307859093"/>
    <trip id="veh192" type="veh_passenger" depart="1625.54" departLane="best" departSpeed="max" from="5080499" to="372302397"/>
    <trip id="veh214" type="veh_passenger" depart="1811.80" departLane="best" from="29920364#1" to="372302397"/>
    <trip id="veh217" type="veh_passenger" depart="1837.20" departLane="best" departSpeed="max" from="-41056554" to="-25896068#1"/>
    <trip id="veh227" type="veh_passenger" depart="1921.86" departLane="best" from="308400301" to="245224801"/>
    <trip id="veh232" type="veh_passenger" depart="1964.20" departLane="best" departSpeed="max" from="5080499" to="178457351"/>
    <trip id="veh233" type="veh_passenger" depart="1972.66" departLane="best" departSpeed="max" from="5080499" to="178457351"/>
    <trip id="veh236" type="veh_passenger" depart="1998.06" departLane="best" from="308400301" to="178860661"/>
    <trip id="veh240" type="veh_passenger" depart="2031.93" departLane="best" from="29920364#1" to="197524599"/>
    <trip id="veh242" type="veh_passenger" depart="2048.86" departLane="best" from="308400301" to="178860661"/>
    <trip id="veh245" type="veh_passenger" depart="2074.26" departLane="best" from="174153211" to="178457351"/>
    <trip id="veh246" type="veh_passenger" depart="2082.72" departLane="best" from="245224801" to="307859093"/>
    <trip id="veh247" type="veh_passenger" depart="2091.19" departLane="best" from="90158067" to="26020081"/>
    <trip id="veh263" type="veh_passenger" depart="2226.65" departLane="best" from="25896068#2" to="25896068#13"/>
    <trip id="veh265" type="veh_passenger" depart="2243.59" departLane="best" from="286808393" to="262572765"/>
    <trip id="veh268" type="veh_passenger" depart="2268.98" departLane="best" departSpeed="max" from="29920364#0" to="174153258"/>
    <trip id="veh270" type="veh_passenger" depart="2285.92" departLane="best" from="-167997065#1" to="25896068#13"/>
    <trip id="veh271" type="veh_passenger" depart="2294.38" departLane="best" departSpeed="max" from="178457350" to="307859093"/>
    <trip id="veh274" type="veh_passenger" depart="2319.78" departLane="best" departSpeed="max" from="29920364#0" to="5081224"/>
    <trip id="veh275" type="veh_passenger" depart="2328.25" departLane="best" from="201749094-AddedOnRampEdge" to="26020081"/>
    <trip id="veh276" type="veh_passenger" depart="2336.72" departLane="best" departSpeed="max" from="29920364#0" to="5080503"/>
    <trip id="veh280" type="veh_passenger" depart="2370.58" departLane="best" departSpeed="max" from="29920364#0" to="307859093"/>
    <trip id="veh283" type="veh_passenger" depart="2395.98" departLane="best" departSpeed="max" from="197597320" to="178860661"/>
    <trip id="veh287" type="veh_passenger" depart="2429.85" departLane="best" departSpeed="max" from="29920364#0" to="178860661"/>
    <trip id="veh293" type="veh_passenger" depart="2480.64" departLane="best" departSpeed="max" from="197597320" to="197708377"/>
    <trip id="veh298" type="veh_passenger" depart="2522.98" departLane="best" departSpeed="max" from="197597320" to="5173589"/>
    <trip id="veh300" type="veh_passenger" depart="2539.91" departLane="best" from="90158067" to="307859093"/>
    <trip id="veh301" type="veh_passenger" depart="2548.37" departLane="best" from="26020082" to="24496264"/>
    <trip id="veh302" type="veh_passenger" depart="2556.84" departLane="best" from="372302397" to="178457351"/>
    <trip id="veh304" type="veh_passenger" depart="2573.77" departLane="best" from="201749095" to="307859093"/>
    <trip id="veh306" type="veh_passenger" depart="2590.71" departLane="best" from="262572770" to="178457351"/>
    <trip id="veh310" type="veh_passenger" depart="2624.57" departLane="best" from="4840731" to="26020081"/>
    <trip id="veh314" type="veh_passenger" depart="2658.44" departLane="best" from="5080504" to="26020081"/>
    <trip id="veh318" type="veh_passenger" depart="2692.30" departLane="best" departSpeed="max" from="25896068#0" to="41056554"/>
    <trip id="veh319" type="veh_passenger" depart="2700.77" departLane="best" departSpeed="max" from="178457350" to="178860661"/>
    <trip id="veh325" type="veh_passenger" depart="2751.57" departLane="best" departSpeed="max" from="262572766" to="178457351"/>
    <trip id="veh328" type="veh_passenger" depart="2776.97" departLane="best" from="90158067" to="26020081"/>
    <trip id="veh331" type="veh_passenger" depart="2802.37" departLane="best" departSpeed="max" from="5080499" to="245224801"/>
    <trip id="veh332" type="veh_passenger" depart="2810.83" departLane="best" from="25896068#3" to="25896068#14"/>
    <trip id="veh333" type="veh_passenger" depart="2819.30" departLane="best" departSpeed="max" from="29920364#0" to="174153256"/>
    <trip id="veh338" type="veh_passenger" depart="2861.63" departLane="best" from="308478638" to="372302397"/>
    <trip id="veh340" type="veh_passenger" depart="2878.56" departLane="best" from="5080504" to="90158076"/>
    <trip id="veh343" type="veh_passenger" depart="2903.96" departLane="best" departSpeed="max" from="5080499" to="245224801"/>
    <trip id="veh344" type="veh_passenger" depart="2912.43" departLane="best" from="29920364#1" to="5080503"/>
    <trip id="veh350" type="veh_passenger" depart="2963.23" departLane="best" departSpeed="max" from="178457350" to="5080504"/>
    <trip id="veh351" type="veh_passenger" depart="2971.69" departLane="best" departSpeed="max" from="178457350" to="178860661"/>
    <trip id="veh355" type="veh_passenger" depart="3005.56" departLane="best" departSpeed="max" from="29920364#0" to="245224795"/>
    <trip id="veh359" type="veh_passenger" depart="3039.42" departLane="best" from="90158076" to="178860661"/>
    <trip id="veh360" type="veh_passenger" depart="3047.89" departLane="best" from="90158067" to="307859093"/>
    <trip id="veh361" type="veh_passenger" depart="3056.36" departLane="best" departSpeed="max" from="178457350" to="262572761"/>
    <trip id="veh362" type="veh_passenger" depart="3064.82" departLane="best" departSpeed="max" from="29920364#0" to="308478638"/>
    <trip id="veh367" type="veh_passenger" depart="3107.15" departLane="best" departSpeed="max" from="29920364#0" to="307859093"/>
    <trip id="veh370" type="veh_passenger" depart="3132.55" departLane="best" departSpeed="max" from="29920364#0" to="197524599"/>
    <trip id="veh374" type="veh_passenger" depart="3166.42" departLane="best" from="173870824" to="173870823"/>
    <trip id="veh394" type="veh_passenger" depart="3335.75" departLane="best" departSpeed="max" from="29920364#0" to="308478638"/>
    <trip id="veh395" type="veh_passenger" depart="3344.21" departLane="best" from="5173581" to="245224795"/>
    <trip id="veh405" type="veh_passenger" depart="3428.88" departLane="best" departSpeed="max" from="29920364#0" to="29920364#1"/>
    <trip id="veh411" type="veh_passenger" depart="3479.67" departLane="best" from="-167997065#1" to="41056557#5"/>
    <trip id="veh413" type="veh_passenger" depart="3496.61" departLane="best" departSpeed="max" from="178457350" to="174153258"/>
    <trip id="veh423" type="veh_passenger" depart="3581.27" departLane="best" from="25896068#2" to="25896068#14"/>
</routes>
