<?xml version="1.0" encoding="UTF-8"?>

<!-- generated on 2021-05-11 23:14:15 by Eclipse SUMO netedit Version 1.9.1
<configuration xmlns:xsi="http://www.w3.org/2001/XMLSchema-instance" xsi:noNamespaceSchemaLocation="http://sumo.dlr.de/xsd/netconvertConfiguration.xsd">

    <input>
        <sumo-net-file value="/home/chris/Documents/STUDIA/Praca_mgr/V2X/net_s8/osm.net.xml"/>
    </input>

    <output>
        <output-file value="/home/chris/Documents/STUDIA/Praca_mgr/V2X/net_s8/osm.net.xml"/>
        <output.street-names value="true"/>
    </output>

    <processing>
        <geometry.min-radius.fix.railways value="false"/>
        <geometry.max-grade.fix value="false"/>
        <offset.disable-normalization value="true"/>
        <lefthand value="false"/>
    </processing>

    <junctions>
        <no-turnarounds value="true"/>
        <junctions.corner-detail value="5"/>
        <junctions.limit-turn-speed value="5.5"/>
        <rectangular-lane-cut value="false"/>
    </junctions>

    <pedestrian>
        <walkingareas value="false"/>
    </pedestrian>

    <netedit>
        <route-files value="/home/chris/Documents/STUDIA/Praca_mgr/V2X/net_s8/net.rou.xml"/>
    </netedit>

    <report>
        <aggregate-warnings value="5"/>
    </report>

</configuration>
-->

<net version="1.9" junctionCornerDetail="5" limitTurnSpeed="5.50" xmlns:xsi="http://www.w3.org/2001/XMLSchema-instance" xsi:noNamespaceSchemaLocation="http://sumo.dlr.de/xsd/net_file.xsd">

    <location netOffset="-497951.79,-5790988.03" convBoundary="0.00,0.00,2266.67,2721.68" origBoundary="20.969968,52.248881,21.021021,52.294488" projParameter="+proj=utm +zone=34 +ellps=WGS84 +datum=WGS84 +units=m +no_defs"/>

    <type id="highway.bridleway" priority="1" numLanes="1" speed="2.78" allow="pedestrian" oneway="1" width="2.00"/>
    <type id="highway.bus_guideway" priority="1" numLanes="1" speed="27.78" allow="bus" oneway="1"/>
    <type id="highway.cycleway" priority="1" numLanes="1" speed="8.33" allow="bicycle" oneway="1" width="1.00"/>
    <type id="highway.footway" priority="1" numLanes="1" speed="2.78" allow="pedestrian" oneway="1" width="2.00"/>
    <type id="highway.ford" priority="1" numLanes="1" speed="2.78" allow="army" oneway="1"/>
    <type id="highway.living_street" priority="2" numLanes="1" speed="2.78" disallow="tram rail_urban rail rail_electric rail_fast ship" oneway="1"/>
    <type id="highway.motorway" priority="14" numLanes="2" speed="39.44" allow="private emergency authority army vip passenger hov taxi bus coach delivery truck trailer motorcycle evehicle custom1 custom2" oneway="1"/>
    <type id="highway.motorway_link" priority="9" numLanes="1" speed="22.22" allow="private emergency authority army vip passenger hov taxi bus coach delivery truck trailer motorcycle evehicle custom1 custom2" oneway="1"/>
    <type id="highway.path" priority="1" numLanes="1" speed="2.78" allow="pedestrian bicycle" oneway="1" width="2.00"/>
    <type id="highway.pedestrian" priority="1" numLanes="1" speed="2.78" allow="pedestrian" oneway="1" width="2.00"/>
    <type id="highway.primary" priority="12" numLanes="2" speed="27.78" disallow="tram rail_urban rail rail_electric rail_fast ship" oneway="1"/>
    <type id="highway.primary_link" priority="7" numLanes="1" speed="22.22" disallow="tram rail_urban rail rail_electric rail_fast ship" oneway="1"/>
    <type id="highway.raceway" priority="15" numLanes="2" speed="83.33" allow="vip" oneway="1"/>
    <type id="highway.residential" priority="3" numLanes="1" speed="13.89" disallow="tram rail_urban rail rail_electric rail_fast ship" oneway="1"/>
    <type id="highway.secondary" priority="11" numLanes="1" speed="27.78" disallow="tram rail_urban rail rail_electric rail_fast ship" oneway="1"/>
    <type id="highway.secondary_link" priority="6" numLanes="1" speed="22.22" disallow="tram rail_urban rail rail_electric rail_fast ship" oneway="1"/>
    <type id="highway.service" priority="1" numLanes="1" speed="5.56" allow="pedestrian delivery bicycle" oneway="1"/>
    <type id="highway.stairs" priority="1" numLanes="1" speed="1.39" allow="pedestrian" oneway="1" width="2.00"/>
    <type id="highway.step" priority="1" numLanes="1" speed="1.39" allow="pedestrian" oneway="1" width="2.00"/>
    <type id="highway.steps" priority="1" numLanes="1" speed="1.39" allow="pedestrian" oneway="1" width="2.00"/>
    <type id="highway.tertiary" priority="10" numLanes="1" speed="22.22" disallow="tram rail_urban rail rail_electric rail_fast ship" oneway="1"/>
    <type id="highway.tertiary_link" priority="5" numLanes="1" speed="22.22" disallow="tram rail_urban rail rail_electric rail_fast ship" oneway="1"/>
    <type id="highway.track" priority="1" numLanes="1" speed="5.56" allow="pedestrian motorcycle moped bicycle" oneway="1"/>
    <type id="highway.trunk" priority="13" numLanes="2" speed="27.78" disallow="pedestrian bicycle tram rail_urban rail rail_electric rail_fast ship" oneway="1"/>
    <type id="highway.trunk_link" priority="8" numLanes="1" speed="22.22" disallow="pedestrian bicycle tram rail_urban rail rail_electric rail_fast ship" oneway="1"/>
    <type id="highway.unclassified" priority="4" numLanes="1" speed="13.89" disallow="tram rail_urban rail rail_electric rail_fast ship" oneway="1"/>
    <type id="highway.unsurfaced" priority="1" numLanes="1" speed="8.33" disallow="tram rail_urban rail rail_electric rail_fast ship" oneway="1"/>
    <type id="railway.highspeed" priority="21" numLanes="1" speed="69.44" allow="rail_fast" oneway="1"/>
    <type id="railway.light_rail" priority="19" numLanes="1" speed="27.78" allow="rail_urban" oneway="1"/>
    <type id="railway.preserved" priority="16" numLanes="1" speed="27.78" allow="rail" oneway="1"/>
    <type id="railway.rail" priority="20" numLanes="1" speed="44.44" allow="rail" oneway="1"/>
    <type id="railway.subway" priority="18" numLanes="1" speed="27.78" allow="rail_urban" oneway="1"/>
    <type id="railway.tram" priority="17" numLanes="1" speed="13.89" allow="tram" oneway="1"/>

    <edge id=":1045215869_0" function="internal">
        <lane id=":1045215869_0_0" index="0" disallow="tram rail_urban rail rail_electric rail_fast ship" speed="12.50" length="0.27" shape="1215.34,1597.54 1215.37,1597.62 1215.39,1597.67 1215.42,1597.72 1215.46,1597.79"/>
    </edge>
    <edge id=":1045216173_0" function="internal">
        <lane id=":1045216173_0_0" index="0" disallow="tram rail_urban rail rail_electric rail_fast ship" speed="16.66" length="7.84" shape="1221.62,1607.33 1223.05,1609.17 1224.03,1610.44 1225.13,1611.60 1226.91,1613.07"/>
    </edge>
    <edge id=":1045216173_1" function="internal">
        <lane id=":1045216173_1_0" index="0" disallow="tram rail_urban rail rail_electric rail_fast ship" speed="19.44" length="7.92" shape="1219.30,1610.06 1221.08,1611.58 1222.15,1612.81 1223.20,1614.05 1224.96,1615.61"/>
        <lane id=":1045216173_1_1" index="1" disallow="tram rail_urban rail rail_electric rail_fast ship" speed="19.44" length="7.92" shape="1217.39,1612.63 1219.16,1614.14 1220.21,1615.36 1221.26,1616.59 1223.01,1618.14"/>
    </edge>
    <edge id=":1045216392_0" function="internal">
        <lane id=":1045216392_0_0" index="0" allow="bus delivery" speed="19.45" length="54.02" shape="724.41,1281.15 710.43,1269.36 698.49,1258.34 689.42,1249.75 684.05,1245.28"/>
    </edge>
    <edge id=":1045216392_1" function="internal">
        <lane id=":1045216392_1_0" index="0" disallow="pedestrian bicycle tram rail_urban rail rail_electric rail_fast ship" speed="25.00" length="54.24" shape="726.39,1278.63 685.96,1242.45"/>
        <lane id=":1045216392_1_1" index="1" disallow="pedestrian bicycle tram rail_urban rail rail_electric rail_fast ship" speed="25.00" length="54.24" shape="728.37,1276.12 687.95,1239.94"/>
        <lane id=":1045216392_1_2" index="2" disallow="pedestrian bicycle tram rail_urban rail rail_electric rail_fast ship" speed="25.00" length="54.24" shape="730.35,1273.61 689.94,1237.43"/>
        <lane id=":1045216392_1_3" index="3" disallow="pedestrian bicycle tram rail_urban rail rail_electric rail_fast ship" speed="25.00" length="54.24" shape="732.33,1271.09 691.93,1234.93"/>
    </edge>
    <edge id=":1045216444_0" function="internal">
        <lane id=":1045216444_0_0" index="0" disallow="pedestrian bicycle tram rail_urban rail rail_electric rail_fast ship" speed="20.83" length="3.21" shape="1034.34,1467.51 1036.39,1465.04"/>
        <lane id=":1045216444_0_1" index="1" disallow="pedestrian bicycle tram rail_urban rail rail_electric rail_fast ship" speed="20.83" length="3.21" shape="1032.43,1470.07 1034.52,1467.64"/>
        <lane id=":1045216444_0_2" index="2" disallow="pedestrian bicycle tram rail_urban rail rail_electric rail_fast ship" speed="20.83" length="3.21" shape="1030.52,1472.64 1032.65,1470.24"/>
        <lane id=":1045216444_0_3" index="3" disallow="pedestrian bicycle tram rail_urban rail rail_electric rail_fast ship" speed="20.83" length="3.21" shape="1028.61,1475.21 1030.79,1472.84"/>
    </edge>
    <edge id=":1065533963_0" function="internal">
        <lane id=":1065533963_0_0" index="0" allow="pedestrian bicycle" speed="2.78" length="8.27" width="2.00" shape="714.17,1300.70 712.13,1299.34 710.74,1298.39 709.39,1297.39 707.47,1295.86"/>
    </edge>
    <edge id=":1065533963_1" function="internal">
        <lane id=":1065533963_1_0" index="0" allow="pedestrian bicycle" speed="2.78" length="2.92" width="2.00" shape="714.17,1300.70 713.83,1299.87 713.90,1299.32 714.39,1299.04 715.29,1299.05"/>
    </edge>
    <edge id=":1065533963_2" function="internal">
        <lane id=":1065533963_2_0" index="0" allow="pedestrian bicycle" speed="2.78" length="8.10" width="2.00" shape="708.73,1294.31 710.61,1295.80 711.93,1296.78 713.29,1297.71 715.29,1299.05"/>
    </edge>
    <edge id=":1065533963_3" function="internal">
        <lane id=":1065533963_3_0" index="0" allow="pedestrian bicycle" speed="2.78" length="2.92" width="2.00" shape="708.73,1294.31 709.00,1295.17 708.87,1295.71 708.37,1295.94 707.47,1295.86"/>
    </edge>
    <edge id=":1065533967_0" function="internal">
        <lane id=":1065533967_0_0" index="0" allow="bicycle" speed="5.55" length="5.48" width="2.00" shape="723.95,1307.21 722.60,1306.32 721.57,1305.88 720.53,1305.46 719.12,1304.65"/>
    </edge>
    <edge id=":1065533967_1" function="internal">
        <lane id=":1065533967_1_0" index="0" allow="bicycle" speed="2.04" length="0.73" width="1.00" shape="723.95,1307.21 723.81,1306.78 723.86,1306.51"/>
    </edge>
    <edge id=":1065533967_4" function="internal">
        <lane id=":1065533967_4_0" index="0" allow="bicycle" speed="2.04" length="0.73" width="1.00" shape="723.86,1306.51 724.11,1306.38 724.56,1306.41"/>
    </edge>
    <edge id=":1065533967_2" function="internal">
        <lane id=":1065533967_2_0" index="0" allow="bicycle" speed="5.55" length="5.72" width="1.00" shape="720.80,1302.17 722.06,1303.26 722.72,1304.24 723.35,1305.25 724.56,1306.41"/>
    </edge>
    <edge id=":1065533967_3" function="internal">
        <lane id=":1065533967_3_0" index="0" allow="pedestrian bicycle" speed="2.78" length="2.02" width="2.00" shape="720.52,1302.58 720.86,1303.41 720.79,1303.97 720.30,1304.24"/>
    </edge>
    <edge id=":1065533967_5" function="internal">
        <lane id=":1065533967_5_0" index="0" allow="pedestrian bicycle" speed="2.78" length="0.90" width="2.00" shape="720.30,1304.24 719.40,1304.24"/>
    </edge>
    <edge id=":1280697773_0" function="internal">
        <lane id=":1280697773_0_0" index="0" allow="bicycle" speed="8.33" length="5.59" width="1.00" shape="1332.76,1679.87 1331.47,1680.91 1330.61,1681.65 1329.80,1682.45 1328.70,1683.69"/>
    </edge>
    <edge id=":1280697773_1" function="internal">
        <lane id=":1280697773_1_0" index="0" allow="bicycle" speed="2.04" length="0.73" width="1.00" shape="1332.76,1679.87 1332.31,1679.91 1332.06,1679.79"/>
    </edge>
    <edge id=":1280697773_4" function="internal">
        <lane id=":1280697773_4_0" index="0" allow="bicycle" speed="2.04" length="0.73" width="1.00" shape="1332.06,1679.79 1332.00,1679.52 1332.13,1679.09"/>
    </edge>
    <edge id=":1280697773_2" function="internal">
        <lane id=":1280697773_2_0" index="0" allow="bicycle" speed="8.33" length="5.76" width="1.00" shape="1327.95,1683.03 1329.08,1681.75 1329.91,1680.93 1330.80,1680.17 1332.13,1679.09"/>
    </edge>
    <edge id=":1280697773_3" function="internal">
        <lane id=":1280697773_3_0" index="0" allow="bicycle" speed="2.04" length="0.73" width="1.00" shape="1327.95,1683.03 1328.38,1682.91 1328.65,1682.98"/>
    </edge>
    <edge id=":1280697773_5" function="internal">
        <lane id=":1280697773_5_0" index="0" allow="bicycle" speed="2.04" length="0.73" width="1.00" shape="1328.65,1682.98 1328.76,1683.24 1328.70,1683.69"/>
    </edge>
    <edge id=":1638028384_0" function="internal">
        <lane id=":1638028384_0_0" index="0" allow="bicycle" speed="2.04" length="1.46" width="1.00" shape="1981.35,2285.08 1981.31,2285.53 1981.16,2285.77 1980.88,2285.78 1980.47,2285.58"/>
    </edge>
    <edge id=":1793147263_0" function="internal">
        <lane id=":1793147263_0_0" index="0" allow="pedestrian delivery bicycle" speed="5.56" length="3.75" shape="711.98,1550.34 710.99,1550.58 710.22,1550.27 709.42,1549.94 708.40,1550.10"/>
    </edge>
    <edge id=":1793147263_1" function="internal">
        <lane id=":1793147263_1_0" index="0" allow="pedestrian delivery bicycle" speed="3.65" length="2.34" shape="711.98,1550.34 710.54,1550.25 709.80,1549.76"/>
    </edge>
    <edge id=":1793147263_4" function="internal">
        <lane id=":1793147263_4_0" index="0" allow="pedestrian delivery bicycle" speed="3.65" length="2.34" shape="709.80,1549.76 709.74,1548.86 710.38,1547.57"/>
    </edge>
    <edge id=":1793147263_2" function="internal">
        <lane id=":1793147263_2_0" index="0" allow="pedestrian delivery bicycle" speed="4.24" length="5.47" shape="710.50,1552.27 711.15,1550.59 711.01,1549.67 710.10,1549.50 708.40,1550.10"/>
    </edge>
    <edge id=":1793147263_3" function="internal">
        <lane id=":1793147263_3_0" index="0" allow="pedestrian delivery bicycle" speed="5.56" length="4.70" shape="710.50,1552.27 710.38,1547.57"/>
    </edge>
    <edge id=":1793147264_0" function="internal">
        <lane id=":1793147264_0_0" index="0" allow="pedestrian delivery bicycle" speed="5.56" length="0.75" shape="681.01,1551.46 681.74,1551.59"/>
    </edge>
    <edge id=":1793147264_1" function="internal">
        <lane id=":1793147264_1_0" index="0" disallow="tram rail_urban rail rail_electric rail_fast ship" speed="3.65" length="2.34" shape="681.01,1551.46 680.31,1550.20 680.32,1549.30"/>
    </edge>
    <edge id=":1793147264_3" function="internal">
        <lane id=":1793147264_3_0" index="0" disallow="tram rail_urban rail rail_electric rail_fast ship" speed="3.65" length="2.34" shape="680.32,1549.30 681.05,1548.78 682.48,1548.62"/>
    </edge>
    <edge id=":1793147264_2" function="internal">
        <lane id=":1793147264_2_0" index="0" allow="pedestrian delivery bicycle" speed="5.56" length="0.14" shape="682.49,1548.48 682.48,1548.62"/>
    </edge>
    <edge id=":1848781925_0" function="internal">
        <lane id=":1848781925_0_0" index="0" disallow="tram rail_urban rail rail_electric rail_fast ship" speed="22.22" length="7.74" shape="1414.91,1436.81 1415.89,1434.83 1416.19,1433.30 1416.41,1431.74 1417.20,1429.65"/>
        <lane id=":1848781925_0_1" index="1" disallow="tram rail_urban rail rail_electric rail_fast ship" speed="22.22" length="7.74" shape="1417.59,1438.55 1418.63,1436.49 1418.96,1434.90 1419.22,1433.28 1420.05,1431.10"/>
    </edge>
    <edge id=":1952835678_0" function="internal">
        <lane id=":1952835678_0_0" index="0" allow="bicycle" speed="3.47" length="3.21" width="2.00" shape="994.99,1532.11 994.20,1531.62 993.52,1531.57 992.97,1531.95 992.54,1532.78"/>
    </edge>
    <edge id=":1952835678_1" function="internal">
        <lane id=":1952835678_1_0" index="0" allow="bicycle" speed="5.55" length="6.86" width="2.00" shape="994.99,1532.11 993.30,1530.94 992.00,1530.23 990.96,1529.32 990.07,1527.60"/>
    </edge>
    <edge id=":1952835678_2" function="internal">
        <lane id=":1952835678_2_0" index="0" allow="bicycle" speed="2.04" length="0.73" width="1.00" shape="994.99,1532.11 994.86,1531.68 994.92,1531.41"/>
    </edge>
    <edge id=":1952835678_9" function="internal">
        <lane id=":1952835678_9_0" index="0" allow="bicycle" speed="2.04" length="0.73" width="1.00" shape="994.92,1531.41 995.18,1531.29 995.63,1531.34"/>
    </edge>
    <edge id=":1952835678_3" function="internal">
        <lane id=":1952835678_3_0" index="0" allow="bicycle" speed="5.55" length="5.63" width="1.00" shape="992.88,1526.56 993.41,1528.15 993.82,1529.26 994.44,1530.22 995.63,1531.34"/>
    </edge>
    <edge id=":1952835678_4" function="internal">
        <lane id=":1952835678_4_0" index="0" allow="pedestrian bicycle" speed="2.78" length="3.01" width="2.00" shape="992.41,1526.74 992.93,1528.43 992.99,1529.67"/>
    </edge>
    <edge id=":1952835678_5" function="internal">
        <lane id=":1952835678_5_0" index="0" allow="pedestrian bicycle" speed="2.78" length="1.90" width="2.00" shape="992.41,1526.74 992.20,1527.61 991.82,1528.02 991.39,1527.97"/>
    </edge>
    <edge id=":1952835678_10" function="internal">
        <lane id=":1952835678_10_0" index="0" allow="pedestrian bicycle" speed="2.78" length="3.08" width="2.00" shape="992.99,1529.67 992.68,1530.91 992.07,1532.61"/>
    </edge>
    <edge id=":1952835678_11" function="internal">
        <lane id=":1952835678_11_0" index="0" allow="pedestrian bicycle" speed="2.78" length="1.02" width="2.00" shape="991.39,1527.97 991.26,1527.96 990.54,1527.42"/>
    </edge>
    <edge id=":1952835678_6" function="internal">
        <lane id=":1952835678_6_0" index="0" allow="pedestrian bicycle" speed="2.78" length="4.69" width="2.00" shape="990.18,1531.93 990.67,1530.63 990.94,1529.68 990.92,1528.72 990.54,1527.42"/>
    </edge>
    <edge id=":1952835678_7" function="internal">
        <lane id=":1952835678_7_0" index="0" allow="bicycle" speed="4.87" length="6.33" width="1.00" shape="990.66,1532.10 991.47,1530.64 992.58,1530.02 993.96,1530.26 995.63,1531.34"/>
    </edge>
    <edge id=":1952835678_8" function="internal">
        <lane id=":1952835678_8_0" index="0" allow="pedestrian bicycle" speed="2.78" length="2.92" width="2.00" shape="990.18,1531.93 990.91,1531.39 991.46,1531.33 991.85,1531.73 992.07,1532.61"/>
    </edge>
    <edge id=":1952835732_0" function="internal">
        <lane id=":1952835732_0_0" index="0" allow="pedestrian bicycle" speed="4.17" length="5.01" width="2.00" shape="748.65,1841.54 747.54,1840.69 746.56,1840.60 745.72,1841.25 745.01,1842.65"/>
    </edge>
    <edge id=":1952835732_1" function="internal">
        <lane id=":1952835732_1_0" index="0" allow="pedestrian bicycle" speed="4.17" length="9.83" width="2.00" shape="748.65,1841.54 747.07,1839.50 746.12,1837.32 745.80,1834.98 746.12,1832.49"/>
    </edge>
    <edge id=":1952835732_2" function="internal">
        <lane id=":1952835732_2_0" index="0" allow="pedestrian motorcycle moped bicycle" speed="3.65" length="4.67" shape="748.65,1841.54 748.39,1840.12 748.68,1839.27 749.53,1839.00 750.95,1839.30"/>
    </edge>
    <edge id=":1952835732_3" function="internal">
        <lane id=":1952835732_3_0" index="0" allow="pedestrian bicycle" speed="4.17" length="7.23" shape="748.06,1832.98 747.99,1834.38 748.45,1835.90 749.43,1837.54 750.95,1839.30"/>
    </edge>
    <edge id=":1952835732_4" function="internal">
        <lane id=":1952835732_4_0" index="0" allow="pedestrian bicycle" speed="2.78" length="10.15" width="2.00" shape="748.06,1832.98 747.32,1835.87 746.72,1837.87 746.03,1839.83 745.01,1842.65"/>
    </edge>
    <edge id=":1952835732_5" function="internal">
        <lane id=":1952835732_5_0" index="0" allow="pedestrian bicycle" speed="2.78" length="2.92" width="2.00" shape="748.06,1832.98 747.40,1833.58 746.85,1833.70 746.43,1833.34 746.12,1832.49"/>
    </edge>
    <edge id=":1952835732_6" function="internal">
        <lane id=":1952835732_6_0" index="0" allow="pedestrian bicycle" speed="2.78" length="9.94" width="2.00" shape="743.13,1841.97 744.14,1839.19 744.81,1837.29 745.39,1835.35 746.12,1832.49"/>
    </edge>
    <edge id=":1952835732_7" function="internal">
        <lane id=":1952835732_7_0" index="0" allow="pedestrian bicycle" speed="4.17" length="10.83" shape="743.13,1841.97 744.67,1838.88 746.49,1837.40 748.58,1837.55 750.95,1839.30"/>
    </edge>
    <edge id=":1952835732_8" function="internal">
        <lane id=":1952835732_8_0" index="0" allow="pedestrian bicycle" speed="2.78" length="2.92" width="2.00" shape="743.13,1841.97 743.85,1841.43 744.41,1841.37 744.79,1841.77 745.01,1842.65"/>
    </edge>
    <edge id=":1952835743_0" function="internal">
        <lane id=":1952835743_0_0" index="0" allow="pedestrian bicycle" speed="2.78" length="2.92" width="2.00" shape="655.59,1966.06 654.71,1966.24 654.18,1966.07 654.00,1965.54 654.17,1964.66"/>
    </edge>
    <edge id=":1952835746_0" function="internal">
        <lane id=":1952835746_0_0" index="0" allow="pedestrian motorcycle moped bicycle" speed="6.70" length="9.27" shape="916.46,2005.89 918.54,2007.43 920.60,2007.99 922.65,2007.57 924.67,2006.17"/>
    </edge>
    <edge id=":1952835746_1" function="internal">
        <lane id=":1952835746_1_0" index="0" allow="pedestrian motorcycle moped bicycle" speed="3.65" length="4.67" shape="916.46,2005.89 916.76,2007.30 916.49,2008.16 915.65,2008.45 914.23,2008.19"/>
    </edge>
    <edge id=":1952835746_2" function="internal">
        <lane id=":1952835746_2_0" index="0" allow="pedestrian motorcycle moped bicycle" speed="6.42" length="9.04" shape="914.19,2016.04 915.74,2014.08 916.26,2012.12 915.76,2010.16 914.23,2008.19"/>
    </edge>
    <edge id=":1952835746_3" function="internal">
        <lane id=":1952835746_3_0" index="0" disallow="tram rail_urban rail rail_electric rail_fast ship" speed="22.22" length="14.37" shape="914.19,2016.04 924.67,2006.17"/>
        <lane id=":1952835746_3_1" index="1" disallow="tram rail_urban rail rail_electric rail_fast ship" speed="22.22" length="14.37" shape="916.40,2018.36 926.86,2008.51"/>
        <lane id=":1952835746_3_2" index="2" disallow="tram rail_urban rail rail_electric rail_fast ship" speed="22.22" length="14.37" shape="918.60,2020.68 929.04,2010.85"/>
    </edge>
    <edge id=":1952835748_0" function="internal">
        <lane id=":1952835748_0_0" index="0" allow="pedestrian delivery bicycle" speed="3.65" length="4.67" shape="636.30,2017.97 637.45,2017.10 638.34,2016.99 638.96,2017.63 639.32,2019.03"/>
    </edge>
    <edge id=":1952835749_0" function="internal">
        <lane id=":1952835749_0_0" index="0" allow="pedestrian delivery bicycle" speed="3.65" length="4.67" shape="792.04,2030.76 793.38,2030.23 794.26,2030.36 794.69,2031.14 794.66,2032.58"/>
    </edge>
    <edge id=":1952835750_0" function="internal">
        <lane id=":1952835750_0_0" index="0" allow="pedestrian delivery bicycle" speed="5.04" length="4.99" shape="632.80,2046.57 631.48,2046.19 630.36,2046.32 629.43,2046.97 628.70,2048.12"/>
    </edge>
    <edge id=":1952835750_1" function="internal">
        <lane id=":1952835750_1_0" index="0" allow="pedestrian delivery bicycle" speed="5.56" length="9.95" shape="632.80,2046.57 630.46,2045.12 629.08,2043.29 628.63,2041.07 629.13,2038.48"/>
    </edge>
    <edge id=":1952835750_2" function="internal">
        <lane id=":1952835750_2_0" index="0" allow="pedestrian delivery bicycle" speed="3.65" length="4.67" shape="632.80,2046.57 632.03,2045.35 632.00,2044.46 632.69,2043.89 634.11,2043.65"/>
    </edge>
    <edge id=":1952835750_3" function="internal">
        <lane id=":1952835750_3_0" index="0" allow="pedestrian delivery bicycle" speed="5.23" length="5.11" shape="632.15,2039.53 631.91,2040.84 632.15,2041.96 632.89,2042.90 634.11,2043.65"/>
    </edge>
    <edge id=":1952835750_4" function="internal">
        <lane id=":1952835750_4_0" index="0" allow="pedestrian delivery bicycle" speed="5.56" length="9.26" shape="632.15,2039.53 631.24,2042.12 630.57,2043.88 629.83,2045.61 628.70,2048.12"/>
    </edge>
    <edge id=":1952835750_5" function="internal">
        <lane id=":1952835750_5_0" index="0" allow="pedestrian delivery bicycle" speed="3.65" length="4.67" shape="632.15,2039.53 631.00,2040.40 630.12,2040.51 629.49,2039.87 629.13,2038.48"/>
    </edge>
    <edge id=":1952835750_6" function="internal">
        <lane id=":1952835750_6_0" index="0" allow="pedestrian delivery bicycle" speed="5.56" length="8.97" shape="625.78,2046.80 626.88,2044.37 627.60,2042.69 628.25,2040.99 629.13,2038.48"/>
    </edge>
    <edge id=":1952835750_7" function="internal">
        <lane id=":1952835750_7_0" index="0" allow="pedestrian delivery bicycle" speed="5.56" length="10.14" shape="625.78,2046.80 627.28,2044.45 629.17,2043.15 631.44,2042.88 634.11,2043.65"/>
    </edge>
    <edge id=":1952835750_8" function="internal">
        <lane id=":1952835750_8_0" index="0" allow="pedestrian delivery bicycle" speed="3.65" length="4.67" shape="625.78,2046.80 627.01,2046.03 627.90,2046.00 628.46,2046.70 628.70,2048.12"/>
    </edge>
    <edge id=":1952835752_0" function="internal">
        <lane id=":1952835752_0_0" index="0" allow="pedestrian delivery bicycle" speed="3.65" length="4.67" shape="689.93,2068.77 690.69,2069.99 690.73,2070.89 690.04,2071.45 688.61,2071.69"/>
    </edge>
    <edge id=":1952835765_0" function="internal">
        <lane id=":1952835765_0_0" index="0" allow="pedestrian delivery bicycle" speed="4.96" length="5.09" shape="754.55,2156.14 755.55,2157.14 756.61,2157.56 757.73,2157.38 758.92,2156.62"/>
    </edge>
    <edge id=":1952835765_1" function="internal">
        <lane id=":1952835765_1_0" index="0" allow="pedestrian delivery bicycle" speed="3.65" length="4.67" shape="754.55,2156.14 754.63,2157.58 754.22,2158.38 753.34,2158.54 751.99,2158.05"/>
    </edge>
    <edge id=":1952835765_2" function="internal">
        <lane id=":1952835765_2_0" index="0" allow="pedestrian delivery bicycle" speed="5.24" length="5.28" shape="751.70,2162.73 752.59,2161.71 752.94,2160.60 752.74,2159.38 751.99,2158.05"/>
    </edge>
    <edge id=":1952835765_3" function="internal">
        <lane id=":1952835765_3_0" index="0" disallow="tram rail_urban rail rail_electric rail_fast ship" speed="22.22" length="9.54" shape="751.70,2162.73 758.92,2156.62"/>
        <lane id=":1952835765_3_1" index="1" disallow="tram rail_urban rail rail_electric rail_fast ship" speed="22.22" length="9.54" shape="753.73,2165.20 761.01,2159.04"/>
        <lane id=":1952835765_3_2" index="2" disallow="tram rail_urban rail rail_electric rail_fast ship" speed="22.22" length="9.54" shape="755.76,2167.67 763.11,2161.45"/>
    </edge>
    <edge id=":2013624592_0" function="internal">
        <lane id=":2013624592_0_0" index="0" allow="pedestrian bicycle" speed="2.78" length="5.34" width="2.00" shape="643.27,1249.86 638.84,1246.87"/>
    </edge>
    <edge id=":2013624592_1" function="internal">
        <lane id=":2013624592_1_0" index="0" allow="pedestrian bicycle" speed="2.78" length="2.92" width="2.00" shape="643.27,1249.86 642.95,1249.02 643.04,1248.47 643.54,1248.21 644.44,1248.24"/>
    </edge>
    <edge id=":2013624592_2" function="internal">
        <lane id=":2013624592_2_0" index="0" allow="pedestrian bicycle" speed="2.78" length="5.43" width="2.00" shape="639.94,1245.20 644.44,1248.24"/>
    </edge>
    <edge id=":2013624592_3" function="internal">
        <lane id=":2013624592_3_0" index="0" allow="pedestrian bicycle" speed="2.78" length="2.92" width="2.00" shape="639.94,1245.20 640.29,1246.03 640.23,1246.59 639.74,1246.87 638.84,1246.87"/>
    </edge>
    <edge id=":2013624660_0" function="internal">
        <lane id=":2013624660_0_0" index="0" allow="pedestrian bicycle" speed="2.78" length="2.92" width="2.00" shape="677.83,1310.07 677.31,1309.33 677.26,1308.77 677.68,1308.40 678.56,1308.21"/>
    </edge>
    <edge id=":2013624908_0" function="internal">
        <lane id=":2013624908_0_0" index="0" allow="pedestrian delivery bicycle" speed="3.65" length="4.67" shape="599.84,1643.60 598.79,1642.62 598.52,1641.76 599.04,1641.04 600.36,1640.44"/>
    </edge>
    <edge id=":201749094-AddedOnRampNode_0" function="internal">
        <lane id=":201749094-AddedOnRampNode_0_0" index="0" disallow="tram rail_urban rail rail_electric rail_fast ship" speed="22.22" length="8.00" shape="1107.20,1857.15 1101.53,1862.79"/>
        <lane id=":201749094-AddedOnRampNode_0_1" index="1" disallow="tram rail_urban rail rail_electric rail_fast ship" speed="22.22" length="8.00" shape="1104.95,1854.88 1099.27,1860.52"/>
        <lane id=":201749094-AddedOnRampNode_0_2" index="2" disallow="tram rail_urban rail rail_electric rail_fast ship" speed="22.22" length="8.00" shape="1102.69,1852.61 1097.02,1858.26"/>
    </edge>
    <edge id=":2078116811_0" function="internal">
        <lane id=":2078116811_0_0" index="0" disallow="tram rail_urban rail rail_electric rail_fast ship" speed="22.22" length="8.27" shape="1506.73,1295.69 1506.49,1298.37 1507.45,1300.36 1508.35,1302.32 1507.90,1304.92"/>
        <lane id=":2078116811_0_1" index="1" disallow="tram rail_urban rail rail_electric rail_fast ship" speed="22.22" length="8.27" shape="1506.73,1295.69 1506.10,1297.98 1506.00,1299.65 1505.84,1301.29 1505.03,1303.51"/>
        <lane id=":2078116811_0_2" index="2" disallow="tram rail_urban rail rail_electric rail_fast ship" speed="22.22" length="8.27" shape="1503.75,1294.53 1503.15,1296.74 1503.07,1298.36 1502.93,1299.95 1502.16,1302.10"/>
        <lane id=":2078116811_0_3" index="3" disallow="tram rail_urban rail rail_electric rail_fast ship" speed="22.22" length="8.27" shape="1500.77,1293.36 1500.20,1295.50 1500.14,1297.07 1500.02,1298.62 1499.29,1300.68"/>