<?xml version="1.0" encoding="UTF-8"?>

<!-- generated on 2021-05-11 19:05:33 by Eclipse SUMO polyconvert Version 1.9.1
<configuration xmlns:xsi="http://www.w3.org/2001/XMLSchema-instance" xsi:noNamespaceSchemaLocation="http://sumo.dlr.de/xsd/polyconvertConfiguration.xsd">

    <input>
        <net-file value="osm.net.xml"/>
        <osm-files value="osm_bbox.osm.xml"/>
        <osm.keep-full-type value="true"/>
        <type-file value="/usr/share/sumo/data/typemap/osmPolyconvert.typ.xml"/>
    </input>

    <output>
        <output-file value="osm.poly.xml"/>
    </output>

    <processing>
        <poi-layer-offset value="5"/>
    </processing>

    <report>
        <verbose value="true"/>
    </report>

</configuration>
-->

<additional xmlns:xsi="http://www.w3.org/2001/XMLSchema-instance" xsi:noNamespaceSchemaLocation="http://sumo.dlr.de/xsd/additional_file.xsd">
    <location netOffset="-497951.79,-5790988.03" convBoundary="-610.69,-2267.76,3533.97,3292.87" origBoundary="20.961026,52.248881,21.021764,52.298872" projParameter="+proj=utm +zone=34 +ellps=WGS84 +datum=WGS84 +units=m +no_defs"/>

    <poly id="117392954" type="building.apartments" color="255,230,230" fill="1" layer="-1.00" shape="637.563235,1508.856762 646.909454,1510.555895 647.693987,1510.689146 650.415985,1511.177780 655.389253,1512.055078 659.912275,1512.888017 664.264755,1489.373151 650.204432,1486.785491 642.017919,1485.275111 641.064222,1490.002581 640.818992,1491.237284 640.464759,1492.983668 640.314897,1493.740063 637.563235,1508.856762"/>
    <poly id="167996768" type="landuse.commercial" color="209,209,204" fill="1" layer="-3.00" shape="722.623628,1561.744476 711.536414,1554.128329 709.306889,1558.377851 707.846832,1557.544035 703.753105,1554.808933 698.540420,1551.328911 697.789862,1550.683992 683.755491,1542.568187 685.930719,1514.627058 686.848387,1502.792122 687.263044,1497.464177 692.312241,1476.696481 697.632202,1473.024493 696.219691,1471.534421 693.831381,1468.999072 697.634144,1455.172364 784.492163,1467.373367 783.824712,1471.600210 783.531849,1473.446673 780.555557,1492.211635 777.458855,1493.625029 764.704019,1500.524475 758.790409,1503.662650 755.463491,1511.605214 722.623628,1561.744476"/>
    <poly id="167997060" type="building.yes" color="255,230,230" fill="1" layer="-1.00" shape="760.267772,1492.350355 764.704019,1500.524475 777.458855,1493.625029 773.015805,1485.462023 760.267772,1492.350355"/>
    <poly id="167997061" type="building.yes" color="255,230,230" fill="1" layer="-1.00" shape="694.611786,1503.846658 701.242724,1504.701303 701.399290,1503.477750 705.471994,1503.999414 709.967659,1504.576581 709.777049,1506.044845 710.998180,1506.211357 710.848418,1507.379294 714.839255,1507.889865 714.941370,1507.111240 727.773445,1508.765094 727.916407,1507.663897 733.599084,1508.396488 733.394862,1510.009351 741.124117,1511.008354 743.020614,1511.252555 743.892019,1504.534141 744.225607,1501.975804 741.298992,1501.598401 742.851184,1489.640958 749.707255,1490.517854 750.946307,1480.985271 756.397064,1481.684580 757.745047,1471.262144 729.324628,1467.599118 725.258717,1467.077432 724.026524,1476.576652 699.276342,1473.379974 698.085048,1482.578872 700.609181,1482.900745 699.077530,1494.769214 695.837098,1494.358555 694.611786,1503.846658"/>
    <poly id="167997066" type="amenity.parking" color="184,184,179" fill="1" layer="-1.00" shape="698.540420,1551.328911 703.753105,1554.808933 707.846832,1557.544035 709.306889,1558.377851 711.536414,1554.128329 722.623628,1561.744476 755.463491,1511.605214 752.011203,1509.670748 743.892019,1504.534141 743.020614,1511.252555 741.124117,1511.008354 727.657058,1532.723684 724.956161,1534.537427 716.443107,1535.985681 707.732689,1539.124672 698.540420,1551.328911"/>
    <poly id="168045363" type="tourism.theme_park" color="207,245,201" fill="1" layer="-2.00" shape="1595.778206,1256.076887 1595.471371,1257.800952 1596.494806,1259.191210 1625.202887,1269.655240 1626.744715,1270.222372 1632.086532,1272.168412 1648.285266,1227.798159 1631.932192,1221.659714 1633.030297,1218.645339 1630.437823,1217.766855 1627.736190,1216.843890 1626.706293,1219.669173 1613.621024,1214.286864 1611.826813,1214.342636 1610.865013,1215.666336 1601.909748,1239.647929 1595.778206,1256.076887"/>
    <poly id="186788694" type="leisure.park" color="207,245,201" fill="1" layer="-2.00" shape="670.608511,1389.866624 674.694817,1389.887732 677.634978,1389.653336 703.764470,1396.008411 705.632762,1392.704425 710.297954,1389.143858 714.231561,1379.465941 717.811810,1374.860128 716.978059,1369.365680 716.976648,1364.126833 718.809032,1354.060188 722.144526,1352.479851 725.978136,1351.322051 732.231712,1343.334197 738.815715,1346.491329 741.653220,1344.911137 741.986616,1341.585326 728.306278,1332.768566 720.302426,1326.419581 716.043312,1318.212087 713.865954,1313.952635 712.541276,1309.459375 711.537022,1304.198553 709.973398,1299.071357 706.636842,1296.858821 660.087693,1263.125049 639.501263,1247.970474 623.070702,1237.475246 609.108930,1224.443351 587.088686,1206.408603 555.891032,1183.538293 510.323312,1153.431678 495.986951,1144.115240 481.555035,1134.832244 468.325105,1129.697715 459.687388,1127.286833 454.898346,1127.800024 448.554863,1131.483726 431.839910,1150.820619 432.160964,1152.077392 433.778312,1153.567321 440.847054,1156.479194 438.583659,1161.307233 442.275195,1163.563964 446.114619,1159.046854 466.756074,1172.587795 463.489596,1176.771021 465.134201,1178.216460 468.264108,1173.632857 483.590479,1185.573886 480.310104,1188.978507 482.964494,1190.790685 485.555719,1187.030353 507.043022,1200.982740 504.301853,1205.232511 510.156014,1207.733320 507.612816,1212.394572 510.546627,1213.361343 514.032661,1213.148926 514.183635,1216.007443 511.182086,1216.586763 505.829554,1225.631281 507.753815,1227.009910 547.467137,1233.293204 546.431985,1239.233103 570.897152,1243.229942 559.886808,1290.127046 558.517546,1296.634308 554.335497,1296.090552 552.232496,1312.597451 543.516679,1366.167594 540.287609,1380.950806 538.033319,1393.231087 540.012349,1395.488415 565.472441,1398.494994 562.317647,1410.886764 567.325944,1414.444563 571.084892,1414.832736 570.540832,1420.472169 568.783405,1429.170740 632.393550,1441.509558 635.578731,1439.417556 670.608511,1389.866624"/>
    <poly id="186788889" type="building.apartments" color="255,230,230" fill="1" layer="-1.00" shape="929.925038,1255.114923 930.749304,1249.798030 922.917267,1248.442824 924.667986,1237.219503 926.182513,1237.330387 930.426666,1210.790384 927.172398,1210.268349 929.774758,1193.972833 940.949824,1195.761090 939.771144,1202.668623 941.886068,1202.957342 939.576686,1217.751206 941.862164,1218.073255 939.409855,1234.335363 939.662292,1234.424289 938.837981,1239.596584 941.471400,1240.029783 938.875887,1256.503258 929.925038,1255.114923"/>
    <poly id="186788911" type="building.apartments" color="255,230,230" fill="1" layer="-1.00" shape="1014.675102,1155.669614 1012.467547,1169.195420 1014.616601,1169.528655 1012.306969,1184.244624 1014.694804,1184.633423 1012.105810,1200.962259 1012.399166,1200.984443 1011.629346,1206.134468 1014.296882,1206.545454 1011.755693,1223.052246 1002.688823,1221.641558 1003.506349,1216.313556 995.626614,1215.380912 997.466117,1203.779423 998.953376,1203.945949 1003.129722,1177.383779 999.745814,1176.839478 1004.882889,1144.459874 1008.253144,1144.859585 1009.009373,1139.932019 1007.829085,1139.720934 1010.452202,1123.358721 1013.481364,1123.780753 1014.517276,1118.675164 1024.580336,1119.885456 1022.243432,1134.935110 1020.155760,1134.590736 1016.762763,1156.002863 1014.675102,1155.669614"/>
    <poly id="186789007" type="building.apartments" color="255,230,230" fill="1" layer="-1.00" shape="1031.608134,1256.850363 1035.586116,1260.386602 1037.933978,1265.658337 1033.405206,1270.831375 1038.051593,1273.677864 1035.344831,1281.408776 1027.849065,1289.318642 1032.693480,1293.155016 1012.593777,1315.771877 1017.028880,1319.708427 1015.004133,1326.293558 1007.617912,1335.593785 1008.893922,1337.050605 977.274876,1371.560341 973.189100,1374.041617 969.341979,1375.988949 965.938173,1377.435660 962.077220,1378.504298 954.906644,1375.002191 953.774750,1377.438339 952.273774,1376.715689 951.503252,1378.295300 946.276948,1374.981862 941.534938,1371.423620 937.072546,1367.542758 932.732747,1362.805414 938.482463,1357.676500 937.397414,1356.052812 931.395272,1361.115048 927.055243,1355.410025 936.501115,1344.374054 935.565654,1340.570261 934.595821,1335.609702 946.962880,1330.557171 950.232387,1338.620487 957.922407,1346.293529 974.023826,1353.953624 987.193424,1337.522376 996.339239,1326.208514 1001.515757,1319.845162 987.841836,1307.257048 981.942313,1314.176710 964.966423,1301.322424 975.762853,1288.495460 1000.414251,1304.896328 1014.266678,1290.422624 1020.432212,1282.924559 1017.436723,1279.933145 1022.599825,1274.303925 1006.449102,1260.170202 1016.086177,1248.300134 1021.237791,1252.892784 1026.081660,1253.892833 1031.608134,1256.850363"/>
    <poly id="186903999" type="building.apartments" color="255,230,230" fill="1" layer="-1.00" shape="1058.421129,1200.341010 1048.551472,1210.064338 1028.048359,1230.278686 1032.558672,1234.715761 1041.388216,1243.389752 1049.641230,1235.012596 1052.567023,1230.640738 1060.620262,1212.386580 1062.808560,1204.355470 1058.421129,1200.341010"/>
    <poly id="186904015" type="amenity.parking" color="184,184,179" fill="1" layer="-1.00" shape="804.481703,1230.496741 807.816060,1223.944564 847.779216,1249.150120 884.842083,1272.154365 867.418264,1299.242559 871.102674,1301.477367 874.589213,1303.589873 883.713550,1288.805489 922.454425,1312.977517 924.412611,1314.200582 928.340605,1307.748455 933.198474,1310.483570 912.549544,1345.391677 839.045549,1299.082578 776.973530,1251.158813 785.762981,1234.772650 794.850007,1234.814828 804.481703,1230.496741"/>
    <poly id="191972069" type="building.yes" color="255,230,230" fill="1" layer="-1.00" shape="1499.986144,1469.566847 1510.806111,1475.605350 1526.779648,1447.140341 1515.959637,1441.090681 1499.986144,1469.566847"/>
    <poly id="23501397" type="leisure.park" color="207,245,201" fill="1" layer="-2.00" shape="1041.830518,1371.813719 1008.579815,1368.061090 933.072083,1445.692591 919.375663,1453.303711 899.118383,1467.979381 806.020255,1516.108111 765.125661,1548.041061 750.067807,1564.606877 740.829334,1582.872988 710.895111,1629.485630 686.089510,1669.957241 665.390285,1708.536948 656.153493,1706.492942 612.361661,1782.986025 594.881769,1816.949127 601.813218,1820.461906 595.328315,1827.704769 576.060876,1836.553121 523.928370,1932.547817 495.025281,1991.274237 499.992441,1995.877530 444.239184,2106.678717 427.304016,2130.754054 379.277983,2230.375021 372.141139,2243.457891 373.895425,2247.494885 383.405657,2254.009652 398.427807,2263.047477 422.222386,2275.508285 476.125543,2295.623168 480.906652,2295.165613 481.989173,2288.992096 494.697070,2292.380548 492.728274,2299.889081 493.268160,2303.248008 494.953620,2305.694501 498.891303,2312.689528 499.567400,2315.425534 499.425179,2318.651201 497.865474,2325.692445 512.412113,2320.371186 542.185580,2303.288466 595.900772,2266.744991 681.273295,2211.417897 749.542077,2159.678303 724.338929,2133.234896 737.071266,2099.329108 656.155736,2029.166181 617.627945,1995.753082 700.334180,1750.148904 763.791658,1612.220096 810.893376,1553.056904 883.802847,1522.985318 929.247727,1517.724846 955.415216,1515.349828 970.007412,1518.038345 990.550915,1533.861680 1020.386148,1553.409305 1053.034045,1584.846841 1062.338597,1584.288834 1064.037867,1587.758816 1073.521520,1596.043440 1082.157322,1594.384443 1092.769567,1583.292925 1099.978643,1576.217421 1101.485631,1573.147233 1102.344654,1570.533205 1103.244151,1565.527763 1085.723537,1551.794459 1071.825570,1540.285065 1128.876584,1474.782948 1083.303962,1457.795967 1058.645547,1435.243764 1068.091969,1426.265765 1096.636057,1399.131628 1134.498627,1369.081747 1191.419838,1325.659188 1193.977732,1323.690006 1227.312478,1298.546787 1269.849032,1264.203766 1295.789617,1240.274568 1315.495784,1221.318328 1366.143341,1272.709614 1397.085697,1306.440946 1401.425287,1312.613540 1391.536846,1338.375291 1433.528293,1357.701347 1454.092304,1323.941078 1455.863332,1301.572879 1483.601431,1240.839049 1509.314740,1186.612449 1538.233906,1121.207226 1564.832319,1036.115026 1567.287603,1028.250958 1578.254605,992.857113 1595.946733,935.784314 1618.700083,861.025872 1669.604635,697.761123 1685.334547,649.798399 1719.886816,564.383957 1735.494769,515.531586 1739.553427,498.357722 1750.139859,448.293333 1751.631651,406.916417 1749.563989,403.212648 1747.216738,402.233984 1742.085818,404.670193 1734.559986,407.662699 1704.341738,433.769926 1693.868863,443.814557 1672.206680,462.202151 1666.427861,467.241224 1643.053149,484.027396 1629.326119,496.853133 1517.432429,608.659195 1491.378998,638.904972 1460.995490,687.003505 1448.376991,717.937549 1425.991482,772.831375 1329.783715,1003.531520 1314.627216,1022.931932 1294.108201,1040.575802 1274.298265,1054.449014 1257.475869,1063.672489 1238.401850,1070.916530 1230.269543,1070.228255 1225.248444,1070.963194 1225.809025,1077.881491 1201.542474,1080.043415 1184.229471,1091.413928 1283.365734,1190.490750 1255.767743,1217.968454 1222.263131,1251.331268 1188.580554,1278.688021 1180.101814,1284.573473 1172.350527,1276.232728 1133.751331,1312.177545 1110.827357,1336.896743 1078.619317,1363.264038 1050.470464,1388.785389 1035.101956,1394.483400 1034.173927,1393.237835 1041.830518,1371.813719"/>
    <poly id="243925159" type="building.yes" color="255,230,230" fill="1" layer="-1.00" shape="1141.012317,1250.945096 1136.809154,1246.752567 1130.724998,1252.826751 1134.928159,1257.008152 1141.012317,1250.945096"/>
    <poly id="25896065" type="natural.wood" color="140,196,107" fill="1" layer="-4.00" shape="1593.816418,1881.713574 1566.897525,1786.271146 1489.283077,1652.894401 1412.928033,1744.021808 1386.144349,1722.046622 1400.057814,1705.182575 1397.349412,1702.958366 1375.920878,1685.320435 1374.917599,1681.472075 1376.820188,1677.056055 1377.549409,1672.072930 1377.671163,1664.464902 1376.086872,1651.929695 1379.325748,1642.029942 1395.749169,1620.805399 1402.753208,1607.846390 1414.011698,1577.312784 1430.192541,1522.630941 1464.575421,1536.029760 1485.718648,1501.401964 1469.699164,1483.496072 1476.048697,1470.481632 1505.444865,1481.523277 1535.303924,1484.323038 1560.840310,1441.697805 1574.967409,1432.887158 1591.257053,1423.831650 1595.028856,1416.579224 1586.971428,1407.537117 1603.857823,1357.571866 1604.054587,1345.659310 1602.989903,1340.520664 1592.183665,1337.385014 1590.593715,1332.657964 1596.847371,1309.989085 1601.430700,1298.476552 1606.683068,1292.113829 1612.829049,1284.794469 1622.188317,1278.587121 1632.086532,1272.168412 1648.285266,1227.798159 1644.258267,1203.762080 1651.938220,1181.805020 1711.307963,1130.691280 1758.608406,1047.434018 1773.766716,1030.604337 1780.574251,1008.714268 1789.640342,992.051812 1800.521195,974.010053 1814.976816,949.928462 1762.421752,923.514545 1771.549100,902.547526 1832.411300,863.681394 1845.127049,825.474003 1808.331810,811.138351 1776.871771,798.104045 1760.476336,789.162234 1763.075398,782.477276 1775.963065,774.701706 1805.307511,773.365439 1810.343386,788.047302 1829.856612,794.920297 1847.663159,778.279820 1861.233452,776.054727 1862.455125,786.877173 1845.965323,803.217227 1863.506705,810.535349 1886.764152,778.945757 1932.528677,683.622010 1940.279026,665.213589 1946.187675,667.349042 1951.461466,652.811428 1959.867078,642.455938 1974.202071,647.672299 2128.597277,231.712936 2167.404958,123.144083 2177.716225,93.335246 2189.221915,58.265382 2200.134033,25.386720 2204.665126,21.560620 2207.749593,17.589880 2210.260849,14.219755 2217.521292,15.565856 2223.512779,9.370668 2225.464651,1.751623 2231.292468,-6.456788 2237.583998,-6.167358 2242.722072,0.039361 2242.598941,7.747454 2237.726495,14.754626 2241.363262,22.473987 2246.378594,25.688673 2255.174474,24.198579 2268.133004,19.249494 2273.967731,10.240293 2277.475171,9.795542 2280.190906,12.520754 2275.140340,33.765060 2272.168434,112.747904 2268.132504,183.855770 2253.309039,250.102525 2230.108198,280.989632 2220.455594,404.841679 2232.346983,445.084408 2232.155518,456.273941 2229.670677,489.275207 2225.541712,516.637155 2214.418801,555.277392 2222.092665,613.105121 2211.433854,654.781913 2192.888739,672.422107 2189.694010,729.404157 2154.213627,818.975247 2146.680315,874.110859 2131.294869,905.354552 2085.937874,1005.170110 2037.594600,1123.750293 1737.203748,1758.917585 1704.159487,1833.965483 1691.194804,1868.903203 1685.583102,1898.234508 1671.595876,1937.432401 1593.816418,1881.713574"/>
    <poly id="25896069" type="landuse.allotments" color="194,194,130" fill="1" layer="-3.00" shape="758.693824,2074.486134 737.071266,2099.329108 656.155736,2029.166181 617.627945,1995.753082 700.334180,1750.148904 763.791658,1612.220096 810.893376,1553.056904 883.802847,1522.985318 929.247727,1517.724846 955.415216,1515.349828 970.007412,1518.038345 990.550915,1533.861680 1020.386148,1553.409305 1053.034045,1584.846841 1064.812867,1608.658447 1078.771338,1755.588199 1071.266533,1817.988733 831.037178,2049.352427 770.796720,2005.310105 730.591917,2050.045566 758.693824,2074.486134"/>
    <poly id="25896070" type="man_made.pipeline" color="255,230,230" fill="0" layer="-1.00" shape="1155.126495,1285.000591 1167.469709,1297.289090"/>
    <poly id="25896071" type="man_made.pipeline" color="255,230,230" fill="0" layer="-1.00" shape="1193.977732,1323.690006 1196.304462,1326.247852 1183.741713,1345.092089 1278.134943,1420.878490"/>
    <poly id="25896072" type="man_made.pipeline" color="255,230,230" fill="0" layer="-1.00" shape="1167.469709,1297.289090 1193.977732,1323.690006"/>
    <poly id="25896073" type="landuse.allotments" color="194,194,130" fill="1" layer="-3.00" shape="1315.495784,1221.318328 1366.143341,1272.709614 1397.085697,1306.440946 1382.142888,1337.297635 1426.549713,1359.593100 1358.799566,1395.962583 1278.134943,1420.878490 1182.669337,1454.318365 1180.684086,1453.673589 1178.494144,1452.817517 1128.876584,1474.782948 1118.015593,1470.736274 1083.303962,1457.795967 1058.645547,1435.243764 1096.636057,1399.131628 1134.498627,1369.081747 1191.419838,1325.659188 1227.312478,1298.546787 1269.849032,1264.203766 1295.789617,1240.274568 1315.495784,1221.318328"/>
    <poly id="25896075" type="amenity.parking" color="184,184,179" fill="1" layer="-1.00" shape="632.270785,1703.452074 613.967803,1699.775698 619.000692,1671.577879 602.907960,1668.646134 610.591390,1630.136675 596.688362,1627.638105 611.235624,1546.659699 679.590715,1554.326163 714.768043,1572.624710 714.474843,1573.103071 677.409571,1634.511200 632.270785,1703.452074"/>
    <poly id="288531959" type="building.service" color="255,230,230" fill="1" layer="-1.00" shape="802.611216,2064.408703 793.025393,2054.945600 750.085234,2098.224511 759.671055,2107.687531 802.611216,2064.408703"/>
    <poly id="288531961" type="building.yes" color="255,230,230" fill="1" layer="-1.00" shape="769.578094,2040.692144 773.907898,2034.829293 762.187213,2026.212137 757.857415,2032.074997 769.578094,2040.692144"/>
    <poly id="288531962" type="building.yes" color="255,230,230" fill="1" layer="-1.00" shape="781.896805,2014.227757 773.846542,2008.512692 768.930373,2015.398995 776.973813,2021.125176 781.896805,2014.227757"/>
    <poly id="288531963" type="building.commercial" color="255,230,230" fill="1" layer="-1.00" shape="672.209311,2067.268503 632.908932,2049.905743 627.912406,2061.163482 633.895130,2063.809000 634.692665,2062.006873 668.010257,2076.724081 672.209311,2067.268503"/>
    <poly id="288531964" type="building.hangar" color="255,230,230" fill="1" layer="-1.00" shape="757.778216,2068.346570 765.981266,2058.589711 753.004978,2047.726090 746.298496,2042.121946 738.095457,2051.878838 757.778216,2068.346570"/>
    <poly id="288531965" type="building.service" color="255,230,230" fill="1" layer="-1.00" shape="753.004978,2047.726090 760.164708,2038.981673 755.034308,2035.056654 749.556793,2034.034791 743.999319,2040.187180 746.298496,2042.121946 753.004978,2047.726090"/>
    <poly id="288536877" type="leisure.pitch" color="207,245,201" fill="1" layer="-2.00" shape="599.488311,2150.020919 622.682080,2160.347283 646.710188,2106.650495 623.516217,2096.324019 599.488311,2150.020919"/>
    <poly id="288536877#1" type="sport.soccer" color="79,230,125" fill="1" layer="-2.00" shape="599.488311,2150.020919 622.682080,2160.347283 646.710188,2106.650495 623.516217,2096.324019 599.488311,2150.020919"/>
    <poly id="288537709" type="amenity.parking" color="184,184,179" fill="1" layer="-1.00" shape="1103.147443,1131.203954 1098.760159,1128.123776 1096.781406,1126.533594 1090.599666,1122.419346 1074.526204,1121.065504 1052.592916,1155.995514 1033.314136,1192.793711 1031.623842,1200.557784 1037.716230,1201.657693 1037.095919,1204.115962 1048.551472,1210.064338 1058.421129,1200.341010 1066.469480,1191.463397 1103.147443,1131.203954"/>
    <poly id="288540021" type="building.yes" color="255,230,230" fill="1" layer="-1.00" shape="733.970910,1444.440167 755.825282,1460.362282 765.181435,1447.579722 756.693512,1441.397645 753.502056,1445.769749 748.289206,1441.967113 752.476293,1436.260006 756.822609,1439.417749 762.666817,1431.441163 750.153218,1422.323722 744.049887,1430.667444 741.709867,1430.145290 741.955102,1428.821609 739.499128,1428.366224 734.764554,1427.488777 731.685499,1444.029231 733.970910,1444.440167"/>
    <poly id="288540022" type="building.construction" color="255,230,230" fill="1" layer="-1.00" shape="758.583295,1415.814665 765.849956,1421.240710 767.588919,1418.915589 770.645688,1421.194976 768.865808,1423.575720 774.406195,1427.711978 776.097424,1425.453610 779.161010,1427.744123 777.558432,1429.880116 781.399849,1432.748818 780.022317,1434.595559 794.357650,1445.292054 795.612440,1443.634436 799.262789,1446.358603 801.274541,1443.677495 803.225942,1445.134092 805.565034,1442.019114 807.468670,1443.431233 818.195796,1429.135727 815.985117,1427.490100 818.651562,1423.930134 816.509111,1422.328981 818.125349,1420.181874 814.686506,1417.613360 816.357300,1415.388379 802.349439,1404.936440 800.971889,1406.772053 797.178224,1403.936693 795.555171,1406.094931 792.348295,1403.704339 794.114556,1401.345853 789.215533,1397.687691 787.346979,1400.179679 783.416839,1397.244259 785.033071,1395.097141 778.039318,1389.871209 758.583295,1415.814665"/>
    <poly id="307351203" type="landuse.forest" color="140,196,107" fill="1" layer="-3.00" shape="147.880190,2624.585264 153.656216,2622.881251 322.255071,2518.086794 452.613168,2459.281006 549.153585,2361.959306 803.104370,2180.775649 1024.227139,1983.227872 1212.550437,1867.692975 1256.557641,1847.464428 1314.260221,1813.197212 1339.133851,1788.144974 1355.910979,1764.462099 1378.669350,1781.732711 1324.945095,1831.926476 1293.268555,1841.007442 1283.672098,1847.704859 1286.354988,1861.607979 1353.631591,1902.507823 1379.641427,1908.032280 1422.778810,1911.230005 1462.454721,1888.323239 1469.958238,1890.190990 1479.075861,1929.498006 1494.684572,1947.159284 1508.860186,1959.693145 1527.420185,1958.111711 1565.110256,1924.939607 1611.217090,1956.746603 1622.208835,1991.237537 1563.430703,2048.125107 1512.353052,2089.807631 1477.780250,2110.199652 1441.134536,2133.361755 1416.936642,2152.585041 1394.600169,2165.434818 1364.671623,2173.514045 1327.459110,2185.187185 1270.692366,2201.301656 1197.243592,2223.781886 1154.602900,2237.259168 1138.165003,2237.195431 1105.263061,2243.029967 1057.949912,2252.949671 1006.477882,2270.145036 974.165034,2285.835153 958.567269,2290.465668 948.084804,2294.227510 936.415977,2299.802663 925.865509,2304.298674 912.389967,2312.899706 879.524902,2327.200216 847.832625,2339.287215 820.075078,2347.847499 796.416178,2354.071103 766.463359,2365.579797 729.076764,2378.725710 693.163606,2391.915993 672.220528,2401.376194 648.093727,2415.609082 625.550419,2433.356449 605.130397,2457.877107 584.784647,2479.172206 565.301192,2509.654595 552.478082,2529.201290 542.353492,2540.849979 538.295990,2542.697609 534.061099,2544.333963 531.136266,2547.805186 525.382818,2557.083405 508.603517,2574.262272 505.194477,2577.711416 502.890374,2581.338182 503.355499,2585.653699 505.976362,2591.737073 507.390214,2598.365845 504.718096,2602.849184 494.727130,2604.821059 486.159467,2621.641497 473.485515,2636.516760 452.661734,2651.850718 433.602871,2662.234523 408.256488,2694.754941 395.836278,2712.555629 362.088483,2726.036797 305.296727,2741.383789 222.055343,2769.532414 212.247948,2768.768573 206.960796,2764.265790 201.288479,2751.109584 202.015760,2744.535711 205.675784,2738.327798 214.819247,2732.484903 222.135236,2727.376807 230.179907,2719.343147 233.832095,2710.221073 234.927174,2702.189978 234.556481,2695.627637 231.628255,2689.055113 220.648810,2672.997779 214.425767,2664.613463 212.596213,2659.864689 215.519876,2654.024111 224.662833,2646.357089 233.443680,2636.866071 238.923872,2628.110384 241.847719,2622.636876 239.650958,2620.813534 236.363366,2620.080632 232.517870,2623.018474 227.037281,2630.684129 217.893888,2637.261108 204.718862,2641.281354 190.820371,2643.833692 179.847598,2646.029030 169.235328,2645.666002 158.991067,2644.579871 146.919844,2645.674542 137.038879,2649.326647 121.675832,2656.273269 110.336978,2663.941343 15.971726,2724.921325 7.557473,2728.940140 2.436241,2730.399351 -0.122023,2728.576265 -0.123384,2725.295027 0.004698,2721.680050 35.009845,2699.853762 140.105146,2624.443665 147.880190,2624.585264"/>