<?xml version="1.0" encoding="UTF-8"?>

<!-- generated on 2021-05-11 19:05:34 by Eclipse SUMO duarouter Version 1.9.1
<configuration xmlns:xsi="http://www.w3.org/2001/XMLSchema-instance" xsi:noNamespaceSchemaLocation="http://sumo.dlr.de/xsd/duarouterConfiguration.xsd">

    <input>
        <net-file value="/home/chris/Documents/STUDIA/Praca_mgr/V2X/2021-05-11-19-05-23/osm.net.xml"/>
        <route-files value="/home/chris/Documents/STUDIA/Praca_mgr/V2X/2021-05-11-19-05-23/osm.passenger.trips.xml"/>
    </input>

    <output>
        <output-file value="routes.rou.xml"/>
        <alternatives-output value="routes.rou.alt.xml"/>
    </output>

    <time>
        <begin value="0"/>
        <end value="3600"/>
    </time>

    <report>
        <no-warnings value="true"/>
        <ignore-errors value="true"/>
        <no-step-log value="true"/>
    </report>

</configuration>
-->

<routes xmlns:xsi="http://www.w3.org/2001/XMLSchema-instance" xsi:noNamespaceSchemaLocation="http://sumo.dlr.de/xsd/routes_file.xsd">
    <vType id="veh_passenger" vClass="passenger"/>
    <vehicle id="veh4" type="veh_passenger" depart="33.87" departLane="best" departSpeed="max">
        <route edges="178457350 308400301 5080504 90158067 5173582 203527026 201749094-AddedOnRampEdge 201749094 173870823 26020081"/>
    </vehicle>
    <vehicle id="veh6" type="veh_passenger" depart="50.80" departLane="best" departSpeed="max">
        <route edges="178457350 286808393 262572761 262572765"/>
    </vehicle>
    <vehicle id="veh10" type="veh_passenger" depart="84.66" departLane="best">
        <route edges="5173586 173870822 23309368 308478638 197708377"/>
    </vehicle>
    <vehicle id="veh15" type="veh_passenger" depart="127.00" departLane="best" departSpeed="max">
        <route edges="178457350 308400301 5080504 90158067 201749048 90158076 5081224 178860661"/>
    </vehicle>
    <vehicle id="veh19" type="veh_passenger" depart="160.86" departLane="best" departSpeed="max">
        <route edges="197597320 197597317 5173586 173870822 23309368 308478638 197708377 5080503 372302397 245224795 178457351"/>
    </vehicle>
    <vehicle id="veh20" type="veh_passenger" depart="169.33" departLane="best" departSpeed="max">
        <route edges="178457350 308400301 5080504 90158067 201749048 90158076 5081224"/>
    </vehicle>
    <vehicle id="veh26" type="veh_passenger" depart="220.13" departLane="best" departSpeed="max">
        <route edges="5080499 5080870 372965838"/>
    </vehicle>
    <vehicle id="veh28" type="veh_passenger" depart="237.06" departLane="best">
        <route edges="197597317 5173586 5173589 178860661"/>
    </vehicle>
    <vehicle id="veh31" type="veh_passenger" depart="262.46" departLane="best" departSpeed="max">
        <route edges="29920364#0 29920364#1 198512378#1 26020082 201749095"/>
    </vehicle>
    <vehicle id="veh35" type="veh_passenger" depart="296.32" departLane="best">
        <route edges="198512378#1 26020082 5173581 308478638 197708377 5080503 372302397 245224795 178457351"/>
    </vehicle>
    <vehicle id="veh63" type="veh_passenger" depart="533.38" departLane="best" departSpeed="max">
        <route edges="178457350 308400301 5080504 90158067 5173582 23309365 245224801 174153258 307859093"/>
    </vehicle>
    <vehicle id="veh68" type="veh_passenger" depart="575.71" departLane="best" departSpeed="max">
        <route edges="5080499 5080870 372965838 174153211 197708377 5080503 372302397 245224795 178457351"/>
    </vehicle>
    <vehicle id="veh71" type="veh_passenger" depart="601.11" departLane="best" departSpeed="max">
        <route edges="178457350 308400301 5080504"/>
    </vehicle>
    <vehicle id="veh75" type="veh_passenger" depart="634.98" departLane="best" departSpeed="max">
        <route edges="5080499 5080870 372965838 5173580 435418857 308433959 245224801 174153258"/>
    </vehicle>
    <vehicle id="veh79" type="veh_passenger" depart="668.84" departLane="best">
        <route edges="23309368 308478638 197708377 5080503 372302397 245224795"/>
    </vehicle>
    <vehicle id="veh81" type="veh_passenger" depart="685.78" departLane="best">
        <route edges="26020082 201749095 422438908 197524599 174153256 174153258 307859093"/>
    </vehicle>
    <vehicle id="veh86" type="veh_passenger" depart="728.11" departLane="best" departSpeed="max">
        <route edges="25896068#0 25896068#2 25896068#3 25896068#4 25896068#5 25896068#6 25896068#8 25896068#12 25896068#13 41056551#1 41056551#2 41056557#1 41056557#2 41056557#3 41056557#4 41056557#5"/>
    </vehicle>
    <vehicle id="veh91" type="veh_passenger" depart="770.44" departLane="best" departSpeed="max">
        <route edges="5080499 5080870 372965838 174153211 197708377 5080503 372302397 245224795 178457351"/>
    </vehicle>
    <vehicle id="veh92" type="veh_passenger" depart="778.91" departLane="best" departSpeed="max">
        <route edges="262572766 262572770 262572773"/>
    </vehicle>
    <vehicle id="veh96" type="veh_passenger" depart="812.77" departLane="best" departSpeed="max">
        <route edges="29920364#0 29920364#1 198512378#1 26020082 201749095 422438908 24496264 28930645 90158065 90158076 5081224 178860661"/>
    </vehicle>
    <vehicle id="veh98" type="veh_passenger" depart="829.70" departLane="best" departSpeed="max">
        <route edges="178457350 308400301 5080504 90158067 201749048 90158076 5081224"/>
    </vehicle>
    <vehicle id="veh102" type="veh_passenger" depart="863.57" departLane="best">
        <route edges="422438908 24496264 28930645 90158065 90158076 5081224 178860661"/>
    </vehicle>
    <vehicle id="veh103" type="veh_passenger" depart="872.04" departLane="best" departSpeed="max">
        <route edges="29920364#0 29920364#1 198512378#1 26020082 201749095 422438908 24496264 28930645 90158065 90158076 5081224"/>
    </vehicle>
    <vehicle id="veh104" type="veh_passenger" depart="880.50" departLane="best">
        <route edges="-41056557#4 -41056557#3 -41056557#2 -41056557#1 -41056551#2 -41056551#1 -25896068#13 -25896068#12 -25896068#8 -25896068#6 -25896068#5 -25896068#4 -25896068#3 167997065#1"/>
    </vehicle>
    <vehicle id="veh106" type="veh_passenger" depart="897.43" departLane="best" departSpeed="max">
        <route edges="178457350 286808393 262572761 262572765"/>
    </vehicle>
    <vehicle id="veh107" type="veh_passenger" depart="905.90" departLane="best">
        <route edges="308478638 197708377 5080503 372302397 245224795 178457351"/>
    </vehicle>
    <vehicle id="veh108" type="veh_passenger" depart="914.37" departLane="best" departSpeed="max">
        <route edges="29920364#0 29920364#1 198512378#1 26020082 201749095 422438908 24496264 28930645 90158065 90158076 5081224 178860661"/>
    </vehicle>
    <vehicle id="veh113" type="veh_passenger" depart="956.70" departLane="best" departSpeed="max">
        <route edges="29920364#0 29920364#1 198512378#1 26020082 201749095 422438908 24496264 28930645 90158065 90158076 5081224 178860661"/>
    </vehicle>
    <vehicle id="veh120" type="veh_passenger" depart="1015.96" departLane="best">
        <route edges="197597317 173870824 4840731"/>
    </vehicle>
    <vehicle id="veh121" type="veh_passenger" depart="1024.43" departLane="best">
        <route edges="5080503 372302397 245224795 178457351"/>
    </vehicle>
    <vehicle id="veh129" type="veh_passenger" depart="1092.16" departLane="best">
        <route edges="422438908 24496264 28930645 90158065 90158076 5081224 178860661"/>
    </vehicle>
    <vehicle id="veh135" type="veh_passenger" depart="1142.96" departLane="best">
        <route edges="5173589 178860661"/>
    </vehicle>
    <vehicle id="veh136" type="veh_passenger" depart="1151.43" departLane="best" departSpeed="max">
        <route edges="29920364#0 29920364#1 198512378#1 26020082 201749095"/>
    </vehicle>
    <vehicle id="veh137" type="veh_passenger" depart="1159.89" departLane="best">
        <route edges="90158067 5173582 203527026 201749094-AddedOnRampEdge 201749094 173870823 26020081"/>
    </vehicle>
    <vehicle id="veh144" type="veh_passenger" depart="1219.16" departLane="best" departSpeed="max">
        <route edges="178457350 308400301 5080504 90158067 5173582 23309365 245224801 174153258 307859093"/>
    </vehicle>
    <vehicle id="veh152" type="veh_passenger" depart="1286.89" departLane="best">
        <route edges="201749048 90158076 5081224 178860661"/>
    </vehicle>
    <vehicle id="veh153" type="veh_passenger" depart="1295.35" departLane="best">
        <route edges="5173580 435418857 308433959 245224801 174153258 307859093"/>
    </vehicle>
    <vehicle id="veh161" type="veh_passenger" depart="1363.08" departLane="best" departSpeed="max">
        <route edges="29920364#0 29920364#1 198512378#1 26020082 5173581 308478638 197708377"/>
    </vehicle>
    <vehicle id="veh163" type="veh_passenger" depart="1380.02" departLane="best" departSpeed="max">
        <route edges="29920364#0 29920364#1 198512378#1 26020082 5173581 308478638 197708377 5080503 372302397 245224795 178457351"/>
    </vehicle>
    <vehicle id="veh168" type="veh_passenger" depart="1422.35" departLane="best">
        <route edges="174153256 174153258 307859093"/>
    </vehicle>
    <vehicle id="veh177" type="veh_passenger" depart="1498.55" departLane="best">
        <route edges="4840731 201749094-AddedOnRampEdge 201749094 173870823 26020081"/>
    </vehicle>
    <vehicle id="veh186" type="veh_passenger" depart="1574.74" departLane="best" departSpeed="max">
        <route edges="178457350 308400301 5080504 90158067 5173582 23309365 245224801 174153258 307859093"/>
    </vehicle>
    <vehicle id="veh192" type="veh_passenger" depart="1625.54" departLane="best" departSpeed="max">
        <route edges="5080499 5080870 372965838 174153211 197708377 5080503 372302397"/>
    </vehicle>
    <vehicle id="veh214" type="veh_passenger" depart="1811.80" departLane="best">
        <route edges="29920364#1 198512378#1 26020082 5173581 308478638 197708377 5080503 372302397"/>
    </vehicle>
    <vehicle id="veh217" type="veh_passenger" depart="1837.20" departLane="best" departSpeed="max">
        <route edges="-41056554 -41056551#4 -41056551#3 -41056551#2 -41056551#1 -25896068#13 -25896068#12 -25896068#8 -25896068#6 -25896068#5 -25896068#4 -25896068#3 -25896068#2 -25896068#1"/>
    </vehicle>
    <vehicle id="veh227" type="veh_passenger" depart="1921.86" departLane="best">
        <route edges="308400301 5080504 90158067 5173582 23309365 245224801"/>
    </vehicle>
    <vehicle id="veh232" type="veh_passenger" depart="1964.20" departLane="best" departSpeed="max">
        <route edges="5080499 5080870 372965838 174153211 197708377 5080503 372302397 245224795 178457351"/>
    </vehicle>
    <vehicle id="veh233" type="veh_passenger" depart="1972.66" departLane="best" departSpeed="max">
        <route edges="5080499 5080870 372965838 174153211 197708377 5080503 372302397 245224795 178457351"/>
    </vehicle>
    <vehicle id="veh236" type="veh_passenger" depart="1998.06" departLane="best">
        <route edges="308400301 5080504 90158067 201749048 90158076 5081224 178860661"/>
    </vehicle>
    <vehicle id="veh240" type="veh_passenger" depart="2031.93" departLane="best">
        <route edges="29920364#1 198512378#1 26020082 201749095 422438908 197524599"/>
    </vehicle>
    <vehicle id="veh242" type="veh_passenger" depart="2048.86" departLane="best">
        <route edges="308400301 5080504 90158067 201749048 90158076 5081224 178860661"/>
    </vehicle>
    <vehicle id="veh245" type="veh_passenger" depart="2074.26" departLane="best">
        <route edges="174153211 197708377 5080503 372302397 245224795 178457351"/>
    </vehicle>
    <vehicle id="veh246" type="veh_passenger" depart="2082.72" departLane="best">
        <route edges="245224801 174153258 307859093"/>
    </vehicle>
    <vehicle id="veh247" type="veh_passenger" depart="2091.19" departLane="best">
        <route edges="90158067 5173582 203527026 201749094-AddedOnRampEdge 201749094 173870823 26020081"/>
    </vehicle>
    <vehicle id="veh263" type="veh_passenger" depart="2226.65" departLane="best">
        <route edges="25896068#2 25896068#3 25896068#4 25896068#5 25896068#6 25896068#8 25896068#12 25896068#13"/>
    </vehicle>
    <vehicle id="veh265" type="veh_passenger" depart="2243.59" departLane="best">
        <route edges="286808393 262572761 262572765"/>
    </vehicle>
    <vehicle id="veh268" type="veh_passenger" depart="2268.98" departLane="best" departSpeed="max">
        <route edges="29920364#0 29920364#1 198512378#1 26020082 201749095 422438908 197524599 174153256 174153258"/>
    </vehicle>
    <vehicle id="veh270" type="veh_passenger" depart="2285.92" departLane="best">
        <route edges="-167997065#1 25896068#3 25896068#4 25896068#5 25896068#6 25896068#8 25896068#12 25896068#13"/>
    </vehicle>
    <vehicle id="veh271" type="veh_passenger" depart="2294.38" departLane="best" departSpeed="max">
        <route edges="178457350 308400301 5080504 90158067 5173582 23309365 245224801 174153258 307859093"/>
    </vehicle>
    <vehicle id="veh274" type="veh_passenger" depart="2319.78" departLane="best" departSpeed="max">
        <route edges="29920364#0 29920364#1 198512378#1 26020082 201749095 422438908 24496264 28930645 90158065 90158076 5081224"/>
    </vehicle>
    <vehicle id="veh275" type="veh_passenger" depart="2328.25" departLane="best">
        <route edges="201749094-AddedOnRampEdge 201749094 173870823 26020081"/>
    </vehicle>
    <vehicle id="veh276" type="veh_passenger" depart="2336.72" departLane="best" departSpeed="max">
        <route edges="29920364#0 29920364#1 198512378#1 26020082 5173581 308478638 197708377 5080503"/>
    </vehicle>
    <vehicle id="veh280" type="veh_passenger" depart="2370.58" departLane="best" departSpeed="max">
        <route edges="29920364#0 29920364#1 198512378#1 26020082 201749095 422438908 197524599 174153256 174153258 307859093"/>
    </vehicle>
    <vehicle id="veh283" type="veh_passenger" depart="2395.98" departLane="best" departSpeed="max">
        <route edges="197597320 197597317 5173586 5173589 178860661"/>
    </vehicle>
    <vehicle id="veh287" type="veh_passenger" depart="2429.85" departLane="best" departSpeed="max">
        <route edges="29920364#0 29920364#1 198512378#1 26020082 201749095 422438908 24496264 28930645 90158065 90158076 5081224 178860661"/>
    </vehicle>
    <vehicle id="veh293" type="veh_passenger" depart="2480.64" departLane="best" departSpeed="max">
        <route edges="197597320 197597317 5173586 173870822 23309368 308478638 197708377"/>
    </vehicle>
    <vehicle id="veh298" type="veh_passenger" depart="2522.98" departLane="best" departSpeed="max">
        <route edges="197597320 197597317 5173586 5173589"/>
    </vehicle>
    <vehicle id="veh300" type="veh_passenger" depart="2539.91" departLane="best">
        <route edges="90158067 5173582 23309365 245224801 174153258 307859093"/>
    </vehicle>
    <vehicle id="veh301" type="veh_passenger" depart="2548.37" departLane="best">
        <route edges="26020082 201749095 422438908 24496264"/>
    </vehicle>
    <vehicle id="veh302" type="veh_passenger" depart="2556.84" departLane="best">
        <route edges="372302397 245224795 178457351"/>
    </vehicle>
    <vehicle id="veh304" type="veh_passenger" depart="2573.77" departLane="best">
        <route edges="201749095 422438908 197524599 174153256 174153258 307859093"/>
    </vehicle>
    <vehicle id="veh306" type="veh_passenger" depart="2590.71" departLane="best">
        <route edges="262572770 262572773 245224795 178457351"/>
    </vehicle>
    <vehicle id="veh310" type="veh_passenger" depart="2624.57" departLane="best">
        <route edges="4840731 201749094-AddedOnRampEdge 201749094 173870823 26020081"/>
    </vehicle>
    <vehicle id="veh314" type="veh_passenger" depart="2658.44" departLane="best">
        <route edges="5080504 90158067 5173582 203527026 201749094-AddedOnRampEdge 201749094 173870823 26020081"/>
    </vehicle>
    <vehicle id="veh318" type="veh_passenger" depart="2692.30" departLane="best" departSpeed="max">
        <route edges="25896068#0 25896068#2 25896068#3 25896068#4 25896068#5 25896068#6 25896068#8 25896068#12 25896068#13 41056551#1 41056551#2 41056551#3 41056551#4 41056554"/>
    </vehicle>
    <vehicle id="veh319" type="veh_passenger" depart="2700.77" departLane="best" departSpeed="max">
        <route edges="178457350 308400301 5080504 90158067 201749048 90158076 5081224 178860661"/>
    </vehicle>
    <vehicle id="veh325" type="veh_passenger" depart="2751.57" departLane="best" departSpeed="max">
        <route edges="262572766 262572770 262572773 245224795 178457351"/>
    </vehicle>
    <vehicle id="veh328" type="veh_passenger" depart="2776.97" departLane="best">
        <route edges="90158067 5173582 203527026 201749094-AddedOnRampEdge 201749094 173870823 26020081"/>
    </vehicle>
    <vehicle id="veh331" type="veh_passenger" depart="2802.37" departLane="best" departSpeed="max">
        <route edges="5080499 5080870 372965838 5173580 435418857 308433959 245224801"/>
    </vehicle>
    <vehicle id="veh332" type="veh_passenger" depart="2810.83" departLane="best">
        <route edges="25896068#3 25896068#4 25896068#5 25896068#6 25896068#8 25896068#12 25896068#13 25896068#14"/>
    </vehicle>
    <vehicle id="veh333" type="veh_passenger" depart="2819.30" departLane="best" departSpeed="max">
        <route edges="29920364#0 29920364#1 198512378#1 26020082 201749095 422438908 197524599 174153256"/>
    </vehicle>
    <vehicle id="veh338" type="veh_passenger" depart="2861.63" departLane="best">
        <route edges="308478638 197708377 5080503 372302397"/>
    </vehicle>
    <vehicle id="veh340" type="veh_passenger" depart="2878.56" departLane="best">
        <route edges="5080504 90158067 201749048 90158076"/>
    </vehicle>
    <vehicle id="veh343" type="veh_passenger" depart="2903.96" departLane="best" departSpeed="max">
        <route edges="5080499 5080870 372965838 5173580 435418857 308433959 245224801"/>
    </vehicle>
    <vehicle id="veh344" type="veh_passenger" depart="2912.43" departLane="best">
        <route edges="29920364#1 198512378#1 26020082 5173581 308478638 197708377 5080503"/>
    </vehicle>
    <vehicle id="veh350" type="veh_passenger" depart="2963.23" departLane="best" departSpeed="max">
        <route edges="178457350 308400301 5080504"/>
    </vehicle>
    <vehicle id="veh351" type="veh_passenger" depart="2971.69" departLane="best" departSpeed="max">
        <route edges="178457350 308400301 5080504 90158067 201749048 90158076 5081224 178860661"/>
    </vehicle>
    <vehicle id="veh355" type="veh_passenger" depart="3005.56" departLane="best" departSpeed="max">
        <route edges="29920364#0 29920364#1 198512378#1 26020082 5173581 308478638 197708377 5080503 372302397 245224795"/>
    </vehicle>
    <vehicle id="veh359" type="veh_passenger" depart="3039.42" departLane="best">
        <route edges="90158076 5081224 178860661"/>
    </vehicle>
    <vehicle id="veh360" type="veh_passenger" depart="3047.89" departLane="best">
        <route edges="90158067 5173582 23309365 245224801 174153258 307859093"/>
    </vehicle>
    <vehicle id="veh361" type="veh_passenger" depart="3056.36" departLane="best" departSpeed="max">
        <route edges="178457350 286808393 262572761"/>
    </vehicle>
    <vehicle id="veh362" type="veh_passenger" depart="3064.82" departLane="best" departSpeed="max">
        <route edges="29920364#0 29920364#1 198512378#1 26020082 5173581 308478638"/>
    </vehicle>
    <vehicle id="veh367" type="veh_passenger" depart="3107.15" departLane="best" departSpeed="max">
        <route edges="29920364#0 29920364#1 198512378#1 26020082 201749095 422438908 197524599 174153256 174153258 307859093"/>
    </vehicle>
    <vehicle id="veh370" type="veh_passenger" depart="3132.55" departLane="best" departSpeed="max">
        <route edges="29920364#0 29920364#1 198512378#1 26020082 201749095 422438908 197524599"/>
    </vehicle>
    <vehicle id="veh374" type="veh_passenger" depart="3166.42" departLane="best">
        <route edges="173870824 4840731 201749094-AddedOnRampEdge 201749094 173870823"/>
    </vehicle>
    <vehicle id="veh394" type="veh_passenger" depart="3335.75" departLane="best" departSpeed="max">
        <route edges="29920364#0 29920364#1 198512378#1 26020082 5173581 308478638"/>
    </vehicle>
    <vehicle id="veh395" type="veh_passenger" depart="3344.21" departLane="best">
        <route edges="5173581 308478638 197708377 5080503 372302397 245224795"/>
    </vehicle>
    <vehicle id="veh405" type="veh_passenger" depart="3428.88" departLane="best" departSpeed="max">
        <route edges="29920364#0 29920364#1"/>
    </vehicle>
    <vehicle id="veh411" type="veh_passenger" depart="3479.67" departLane="best">
        <route edges="-167997065#1 25896068#3 25896068#4 25896068#5 25896068#6 25896068#8 25896068#12 25896068#13 41056551#1 41056551#2 41056557#1 41056557#2 41056557#3 41056557#4 41056557#5"/>
    </vehicle>
    <vehicle id="veh413" type="veh_passenger" depart="3496.61" departLane="best" departSpeed="max">
        <route edges="178457350 308400301 5080504 90158067 5173582 23309365 245224801 174153258"/>
    </vehicle>
    <vehicle id="veh423" type="veh_passenger" depart="3581.27" departLane="best">
        <route edges="25896068#2 25896068#3 25896068#4 25896068#5 25896068#6 25896068#8 25896068#12 25896068#13 25896068#14"/>
    </vehicle>
</routes>
