<?xml version="1.0" encoding="UTF-8"?>

<!-- generated on 2021-05-10 21:33:25 by Eclipse SUMO polyconvert Version 1.9.1
<configuration xmlns:xsi="http://www.w3.org/2001/XMLSchema-instance" xsi:noNamespaceSchemaLocation="http://sumo.dlr.de/xsd/polyconvertConfiguration.xsd">

    <input>
        <net-file value="osm.net.xml"/>
        <osm-files value="osm_bbox.osm.xml"/>
        <osm.keep-full-type value="true"/>
        <type-file value="/usr/share/sumo/data/typemap/osmPolyconvert.typ.xml"/>
    </input>

    <output>
        <output-file value="osm.poly.xml"/>
    </output>

    <processing>
        <poi-layer-offset value="5"/>
    </processing>

    <report>
        <verbose value="true"/>
    </report>

</configuration>
-->

<additional xmlns:xsi="http://www.w3.org/2001/XMLSchema-instance" xsi:noNamespaceSchemaLocation="http://sumo.dlr.de/xsd/additional_file.xsd">
    <location netOffset="-495811.56,-5783648.82" convBoundary="-0.00,0.00,7122.86,5710.57" origBoundary="20.938702,52.203274,21.042981,52.254624" projParameter="+proj=utm +zone=34 +ellps=WGS84 +datum=WGS84 +units=m +no_defs"/>

    <poly id="105154467" type="building.apartments" color="255,230,230" fill="1" layer="-1.00" shape="3716.513107,2753.311073 3769.683014,2803.914656 3758.168602,2815.961548 3704.786984,2765.458212 3716.513107,2753.311073"/>
    <poly id="105154468" type="building.apartments" color="255,230,230" fill="1" layer="-1.00" shape="3863.567394,2886.037762 3867.869452,2873.680140 3920.372265,2891.873788 3916.179353,2903.919922 3863.567394,2886.037762"/>
    <poly id="105154470" type="building.apartments" color="255,230,230" fill="1" layer="-1.00" shape="3757.532175,2723.309365 3688.579401,2700.225086 3669.157701,2732.249387 3694.486517,2758.674371 3718.301089,2737.427663 3721.128971,2739.596325 3721.422584,2738.717602 3749.911832,2747.157139 3757.532175,2723.309365"/>
    <poly id="105154472" type="building.residential" color="255,230,230" fill="1" layer="-1.00" shape="3669.694251,2833.688518 3684.461851,2844.765221 3671.671051,2861.739809 3656.896643,2850.663145 3669.694251,2833.688518"/>
    <poly id="105154474" type="building.apartments" color="255,230,230" fill="1" layer="-1.00" shape="3956.268105,2843.955299 3972.241580,2801.032005 3957.590871,2795.660394 3941.269170,2838.461402 3956.268105,2843.955299"/>
    <poly id="105154476" type="building.residential" color="255,230,230" fill="1" layer="-1.00" shape="3736.510721,2892.354312 3756.281490,2871.019171 3760.433716,2866.547477 3764.436389,2870.239875 3765.235419,2869.372235 3769.764034,2873.553992 3769.040126,2874.343766 3773.377479,2878.336457 3766.001819,2886.300948 3764.683538,2885.088684 3748.108878,2902.975464 3743.751033,2898.949429 3742.863231,2899.917186 3740.267648,2897.526035 3741.128134,2896.602772 3736.510721,2892.354312"/>
    <poly id="105154479" type="building.apartments" color="255,230,230" fill="1" layer="-1.00" shape="4045.367386,2914.692419 4061.648757,2871.925117 4076.346943,2877.563982 4068.315447,2898.953160 4060.284020,2920.331229 4045.367386,2914.692419"/>
    <poly id="105249375" type="building.offices" color="255,230,230" fill="1" layer="-1.00" shape="3775.156184,2995.124874 3771.501641,2987.884289 3788.579603,2946.417376 3799.809259,2964.023748 3793.751436,2966.949503 3786.793450,2986.692893 3775.156184,2995.124874"/>
    <poly id="105249377" type="building.offices" color="255,230,230" fill="1" layer="-1.00" shape="3834.227791,3006.521084 3840.355186,3022.070215 3812.400395,3013.618991 3779.275244,3003.600045 3775.156184,2995.124874 3786.793450,2986.692893 3790.140564,2993.088187 3834.227791,3006.521084"/>
    <poly id="105249380" type="building.offices" color="255,230,230" fill="1" layer="-1.00" shape="3823.721045,2971.718852 3799.809259,2964.023748 3788.579603,2946.417376 3826.294926,2958.593852 3823.721045,2971.718852"/>
    <poly id="105250332" type="building.residential" color="255,230,230" fill="1" layer="-1.00" shape="3867.773715,3082.742814 3882.545950,3077.514199 3895.845167,3108.834984 3890.013758,3126.932003 3874.995166,3122.205773 3879.638434,3108.335445 3867.773715,3082.742814"/>
    <poly id="105250333" type="building.residential" color="255,230,230" fill="1" layer="-1.00" shape="3791.022939,3094.760921 3794.648677,3084.661199 3809.715317,3090.043421 3836.201381,3099.506903 3863.418129,3109.226302 3859.785439,3119.325975 3791.022939,3094.760921"/>
    <poly id="105250336" type="building.residential" color="255,230,230" fill="1" layer="-1.00" shape="3853.230647,3042.612994 3868.631980,3047.572709 3874.034781,3055.447250 3882.545950,3077.514199 3867.773715,3082.742814 3864.972118,3060.775618 3861.379488,3057.572510 3849.741427,3053.802690 3853.230647,3042.612994"/>
    <poly id="105250337" type="building.residential" color="255,230,230" fill="1" layer="-1.00" shape="3811.379789,3064.271945 3818.462340,3066.473710 3820.094244,3061.223663 3823.911139,3048.977263 3828.308447,3034.884452 3821.225856,3032.693796 3811.379789,3064.271945"/>
    <poly id="105250339" type="building.residential" color="255,230,230" fill="1" layer="-1.00" shape="3823.911139,3048.977263 3828.308447,3034.884452 3853.230647,3042.612994 3849.741427,3053.802690 3848.444070,3057.962677 3841.054178,3055.671909 3841.443382,3054.415015 3823.911139,3048.977263"/>
    <poly id="105250340" type="building.residential" color="255,230,230" fill="1" layer="-1.00" shape="3809.715317,3090.043421 3818.462340,3066.473710 3820.094244,3061.223663 3846.553122,3070.676079 3836.201381,3099.506903 3809.715317,3090.043421"/>
    <poly id="105250712" type="building.residential" color="255,230,230" fill="1" layer="-1.00" shape="3732.383324,3091.729473 3750.523422,3097.923192 3742.084207,3122.560778 3740.575262,3126.965513 3722.435260,3120.782953 3732.383324,3091.729473"/>
    <poly id="105250714" type="building.residential" color="255,230,230" fill="1" layer="-1.00" shape="3895.533281,3147.297381 3911.583083,3152.768837 3901.374610,3182.556075 3885.324893,3177.084651 3886.984175,3172.257287 3895.533281,3147.297381"/>
    <poly id="105250715" type="building.residential" color="255,230,230" fill="1" layer="-1.00" shape="3790.095254,3109.009205 3807.600043,3114.969607 3798.341212,3141.998546 3796.818566,3146.436634 3779.313875,3140.476269 3780.918443,3135.804593 3790.095254,3109.009205"/>
    <poly id="105250716" type="building.residential" color="255,230,230" fill="1" layer="-1.00" shape="3779.313875,3140.476269 3796.818566,3146.436634 3798.341212,3141.998546 3832.831437,3153.763791 3831.138061,3158.702402 3848.226014,3164.529506 3849.905747,3159.613146 3867.355648,3165.562641 3864.248797,3174.627864 3777.716140,3145.136823 3779.313875,3140.476269"/>
    <poly id="105250717" type="building.residential" color="255,230,230" fill="1" layer="-1.00" shape="3841.585147,3128.214273 3858.673192,3134.030289 3849.905747,3159.613146 3848.226014,3164.529506 3831.138061,3158.702402 3832.831437,3153.763791 3841.585147,3128.214273"/>
    <poly id="105250922" type="building.residential" color="255,230,230" fill="1" layer="-1.00" shape="3683.921158,2967.782560 3689.549139,2969.850815 3689.084838,2971.107730 3692.568171,2972.375370 3693.025643,2971.118456 3698.305284,2973.064407 3706.853953,2949.861572 3708.800527,2950.573237 3712.474027,2940.618048 3707.126057,2938.660966 3707.528913,2937.570900 3701.415966,2935.324708 3701.013111,2936.414774 3695.446569,2934.379868 3691.779930,2944.335069 3692.469770,2944.590823 3683.921158,2967.782560"/>
    <poly id="105250926" type="building.residential" color="255,230,230" fill="1" layer="-1.00" shape="3562.839233,2891.060732 3560.606869,2899.113864 3563.256968,2899.847628 3558.348518,2917.588989 3544.660929,2913.820147 3549.582988,2896.034280 3550.723624,2896.345570 3553.037892,2887.969864 3562.839233,2891.060732"/>
    <poly id="105251511" type="building.residential" color="255,230,230" fill="1" layer="-1.00" shape="3581.997460,2781.855494 3588.455933,2758.919663 3589.070664,2759.097552 3601.221831,2762.499647 3602.683520,2762.899892 3601.044985,2768.706145 3601.536769,2768.850682 3600.929146,2771.008561 3601.482402,2771.164214 3600.062343,2776.214096 3599.522748,2776.058442 3598.580596,2779.417615 3598.095645,2779.284200 3597.392445,2781.786896 3591.525211,2780.141437 3590.385078,2784.201367 3582.755623,2782.055610 3581.997460,2781.855494"/>
    <poly id="105251512" type="building.residential" color="255,230,230" fill="1" layer="-1.00" shape="3605.031435,2748.973972 3603.208557,2755.447609 3601.221831,2762.499647 3589.070664,2759.097552 3591.050548,2752.067755 3592.880238,2745.571868 3605.031435,2748.973972"/>
    <poly id="105251513" type="building.residential" color="255,230,230" fill="1" layer="-1.00" shape="3560.212268,2857.381470 3569.066860,2826.347968 3586.743653,2832.207461 3607.596479,2839.134424 3605.363846,2845.730459 3582.291193,2837.969572 3583.431394,2834.621494 3581.628199,2834.021088 3574.398058,2856.868045 3576.310530,2857.512926 3577.198102,2854.887854 3598.330928,2862.259653 3597.641343,2864.284070 3595.873007,2869.500837 3588.236802,2866.910163 3560.212268,2857.381470"/>
    <poly id="105251514" type="building.apartments" color="255,230,230" fill="1" layer="-1.00" shape="3576.215272,2805.202791 3582.755623,2782.055610 3590.385078,2784.201367 3598.335551,2786.447202 3596.976939,2791.230133 3594.627318,2790.574174 3590.408141,2805.501369 3592.115710,2805.979440 3591.091642,2809.616693 3589.493355,2809.138609 3576.215272,2805.202791"/>
    <poly id="105251515" type="building.residential" color="255,230,230" fill="1" layer="-1.00" shape="3551.569397,2887.502898 3553.037892,2887.969864 3562.839233,2891.060732 3570.714448,2893.540109 3572.769527,2887.689303 3566.472072,2885.632387 3570.657230,2872.874103 3568.567179,2872.195879 3568.819735,2870.972348 3568.259511,2869.637692 3567.378369,2869.014930 3568.115722,2866.768048 3576.161740,2869.392008 3576.708294,2870.671053 3579.317442,2871.527181 3580.587737,2870.904153 3586.427581,2872.816547 3588.236802,2866.910163 3560.212268,2857.381470 3551.569397,2887.502898"/>
    <poly id="105459919" type="building.commercial" color="255,230,230" fill="1" layer="-1.00" shape="3626.207661,3375.369897 3628.023754,3371.042950 3628.590588,3371.087377 3630.488572,3366.193162 3629.764564,3365.258934 3631.867469,3360.720625 3650.088462,3365.112087 3653.139831,3352.943492 3624.927148,3345.138468 3622.913065,3350.043821 3621.922796,3349.854848 3613.757380,3370.688658 3626.207661,3375.369897"/>
    <poly id="105463006" type="building.office" color="255,230,230" fill="1" layer="-1.00" shape="3682.612023,3390.223776 3682.680292,3389.990192 3680.385600,3389.334186 3685.130126,3371.681932 3687.677510,3372.360160 3690.319436,3362.438420 3708.608739,3367.608682 3700.860269,3395.527486 3682.612023,3390.223776"/>
    <poly id="105463009" type="building.residential" color="255,230,230" fill="1" layer="-1.00" shape="3649.182780,3451.769364 3664.733646,3395.586791 3665.750847,3392.227619 3676.575497,3395.251870 3677.387880,3392.393245 3678.801573,3392.793517 3678.733306,3393.038224 3681.847525,3393.905478 3680.707472,3398.087740 3692.228705,3401.345531 3692.296976,3401.134193 3693.232602,3401.356553 3692.891254,3402.491106 3698.518705,3404.236814 3682.257479,3462.632778 3679.416406,3461.164869 3653.792624,3453.303800 3649.182780,3451.769364"/>
    <poly id="106646320" type="leisure.park" color="207,245,201" fill="1" layer="-2.00" shape="3903.120260,2424.498237 3901.117090,2393.254656 3895.429534,2317.453717 3891.389091,2259.293310 3968.959333,2252.548902 3974.929434,2251.970261 4013.038978,2265.126929 3991.654094,2323.488589 3968.419084,2392.405882 3952.225995,2440.579092 3927.410179,2432.305040 3903.120260,2424.498237"/>
    <poly id="107277340" type="building.residential" color="255,230,230" fill="1" layer="-1.00" shape="3665.242520,3105.739623 3691.585323,3114.890910 3701.840711,3087.450133 3690.045429,3082.813131 3683.695643,3100.465536 3669.100202,3095.639784 3665.242520,3105.739623"/>
    <poly id="107277342" type="building.residential" color="255,230,230" fill="1" layer="-1.00" shape="3721.218528,3037.173559 3711.836881,3062.044861 3683.922868,3051.570023 3658.030415,3041.851470 3660.577181,3035.110828 3667.411831,3016.991190 3669.112506,3017.625006 3678.401327,3021.105452 3691.952056,3026.198281 3721.218528,3037.173559"/>
    <poly id="107277344" type="building.residential" color="255,230,230" fill="1" layer="-1.00" shape="3728.202283,3004.327507 3727.410225,3006.429775 3729.418247,3007.185934 3728.701297,3009.076863 3730.681997,3009.821902 3729.951392,3011.757323 3730.695863,3012.046445 3721.218528,3037.173559 3691.952056,3026.198281 3698.322531,3009.302232 3703.675677,2995.120235 3728.202283,3004.327507"/>
    <poly id="107277345" type="building.residential" color="255,230,230" fill="1" layer="-1.00" shape="3711.836881,3062.044861 3683.922868,3051.570023 3681.519516,3058.444111 3691.832792,3062.792050 3687.865841,3073.659350 3677.258968,3069.889830 3674.753223,3077.097614 3676.132869,3077.609117 3690.045429,3082.813131 3701.840711,3087.450133 3711.836881,3062.044861"/>
    <poly id="107287732" type="building.office" color="255,230,230" fill="1" layer="-1.00" shape="3592.364220,3054.705686 3594.241616,3048.276526 3568.287526,3038.747537 3570.369828,3032.629779 3581.010991,3036.232224 3585.612578,3022.695308 3600.249310,3027.654282 3596.146082,3039.722925 3620.631584,3048.017606 3620.044428,3049.752819 3640.780197,3056.768919 3641.517567,3054.622152 3649.385672,3057.279620 3648.723403,3059.226168 3656.010953,3061.694624 3653.464286,3069.169368 3649.244894,3081.571662 3645.809446,3080.415274 3639.951503,3097.645018 3586.664449,3079.621274 3591.320710,3066.596002 3605.499728,3071.632905 3609.377711,3060.743305 3592.364220,3054.705686"/>
    <poly id="107287733" type="building.office" color="255,230,230" fill="1" layer="-1.00" shape="3610.486131,2960.961238 3665.707498,2981.710096 3645.292325,3035.790967 3590.071478,3015.053457 3597.370178,2995.721290 3610.486131,2960.961238"/>
    <poly id="107613843" type="amenity.parking" color="184,184,179" fill="1" layer="-1.00" shape="3446.710044,2253.100114 3443.184506,2247.505921 3438.306132,2239.765252 3424.201906,2249.021503 3432.735596,2262.156113 3446.710044,2253.100114"/>
    <poly id="107613846" type="building.apartments" color="255,230,230" fill="1" layer="-1.00" shape="3409.634623,2223.641751 3423.028619,2215.264263 3435.538990,2235.438939 3422.479711,2243.649501 3409.634623,2223.641751"/>
    <poly id="114875589" type="amenity.parking" color="184,184,179" fill="1" layer="-1.00" shape="3464.240976,2834.537391 3482.817689,2780.311456 3514.278494,2791.029372 3512.237119,2796.991427 3524.989417,2801.338685 3514.884956,2830.837499 3505.855260,2827.768865 3495.402780,2858.279936 3460.213003,2846.294696 3464.240976,2834.537391"/>
    <poly id="114875591" type="amenity.parking" color="184,184,179" fill="1" layer="-1.00" shape="3533.191091,2792.150227 3542.220784,2794.829615 3538.288401,2808.010551 3556.006202,2813.291548 3553.773616,2819.809746 3536.520273,2814.484206 3532.792729,2826.975511 3539.807429,2829.065658 3525.532281,2876.917487 3513.661354,2873.393189 3532.182784,2811.325927 3527.852370,2810.047390 3533.191091,2792.150227"/>
    <poly id="114875598" type="amenity.parking" color="184,184,179" fill="1" layer="-1.00" shape="3273.711311,2798.342234 3280.778254,2786.539729 3290.730292,2789.985957 3293.611228,2782.510969 3298.659017,2784.523271 3292.747244,2801.497605 3293.472009,2805.813089 3299.093575,2808.259074 3293.045360,2825.956409 3286.986769,2823.944297 3280.228307,2841.697392 3290.146070,2845.065766 3277.079844,2879.693180 3263.316444,2873.989777 3256.107756,2893.845185 3265.335546,2896.868835 3251.641930,2934.922234 3242.086190,2930.964363 3231.095208,2957.394061 3197.353227,2944.431609 3207.655597,2924.853568 3273.711311,2798.342234"/>
    <poly id="114875601" type="building.hall" color="255,230,230" fill="1" layer="-1.00" shape="3531.241527,2769.582491 3564.327666,2778.810065 3556.585877,2806.417634 3543.089222,2802.659896 3547.110262,2788.311067 3527.520896,2782.841266 3531.241527,2769.582491"/>
    <poly id="114875606" type="building.retail" color="255,230,230" fill="1" layer="-1.00" shape="3591.180420,2639.661567 3589.034736,2631.586735 3594.942218,2625.624248 3603.022712,2627.803338 3605.291291,2635.644584 3598.905679,2641.507012 3597.867964,2645.589172 3602.744928,2646.889950 3596.245387,2670.882422 3583.492916,2667.358062 3591.180420,2639.661567"/>
    <poly id="114875606#1" type="shop.supermarket" color="237,199,255" fill="1" layer="-1.00" shape="3591.180420,2639.661567 3589.034736,2631.586735 3594.942218,2625.624248 3603.022712,2627.803338 3605.291291,2635.644584 3598.905679,2641.507012 3597.867964,2645.589172 3602.744928,2646.889950 3596.245387,2670.882422 3583.492916,2667.358062 3591.180420,2639.661567"/>
    <poly id="114875610" type="amenity.parking" color="184,184,179" fill="1" layer="-1.00" shape="3511.183461,2883.470711 3527.623778,2888.406977 3511.915551,2942.865937 3521.942154,2945.656380 3489.159766,3048.712918 3470.213331,3043.043043 3474.943969,3026.703079 3484.499172,3029.493515 3502.582839,2969.572874 3505.436996,2964.444905 3510.871285,2947.993654 3493.413387,2942.245628 3496.082757,2934.359245 3511.183461,2883.470711"/>
    <poly id="114875614" type="amenity.parking" color="184,184,179" fill="1" layer="-1.00" shape="3610.739902,2677.454234 3628.908961,2683.391678 3630.070121,2683.602879 3631.285869,2683.335796 3632.392289,2682.668309 3637.706361,2684.158159 3641.927877,2688.195237 3637.120808,2700.731072 3635.748343,2704.334985 3633.494099,2701.810380 3632.531014,2701.554666 3631.779759,2702.144254 3631.117355,2703.245478 3630.789670,2704.702590 3635.113324,2706.025709 3629.746677,2722.643650 3605.587531,2715.216461 3606.720855,2711.100922 3600.778374,2709.166271 3610.739902,2677.454234"/>
    <poly id="114875616" type="amenity.parking" color="184,184,179" fill="1" layer="-1.00" shape="3305.666944,2786.045829 3333.405519,2795.628743 3334.811811,2791.568709 3447.438554,2830.457839 3439.942467,2852.048165 3299.577671,2803.598568 3305.666944,2786.045829"/>
    <poly id="114875622" type="amenity.parking" color="184,184,179" fill="1" layer="-1.00" shape="3453.110755,2944.587222 3437.975050,2939.628760 3455.397013,2886.693123 3450.001102,2884.925413 3452.069638,2878.640768 3447.923659,2877.284415 3453.603611,2860.021108 3506.224070,2877.253792 3505.159130,2881.102400 3483.083781,2874.209410 3476.843707,2891.606236 3473.893062,2890.794703 3462.375830,2923.897594 3496.082757,2934.359245 3493.413387,2942.245628 3480.729793,2938.387841 3473.711668,2958.977005 3450.871644,2951.839569 3453.110755,2944.587222"/>
    <poly id="117467271" type="building.yes" color="255,230,230" fill="1" layer="-1.00" shape="4269.714873,2551.167259 4266.757189,2558.964234 4231.416895,2545.638790 4234.374532,2537.841794 4269.714873,2551.167259"/>
    <poly id="117620407" type="building.yes" color="255,230,230" fill="1" layer="-1.00" shape="4297.917290,2564.081273 4295.526531,2569.909523 4289.112868,2567.284428 4291.503620,2561.456175 4297.917290,2564.081273"/>
    <poly id="117620410" type="building.yes" color="255,230,230" fill="1" layer="-1.00" shape="4055.873425,2466.624624 4052.615504,2475.122465 4035.907904,2468.738514 4039.172632,2460.251785 4055.873425,2466.624624"/>
    <poly id="120256326" type="amenity.parking" color="184,184,179" fill="1" layer="-1.00" shape="3938.989729,2467.085164 3914.672539,2456.786818 3913.682088,2456.330841 3906.421595,2462.582214 3906.299002,2468.833185 3910.202546,2527.983552 3913.528940,2527.549580 3915.420642,2521.632192 3919.176886,2512.511362 3923.540923,2500.921259 3927.317812,2494.147326 3932.262675,2486.405660 3938.812327,2470.889141 3938.989729,2467.085164"/>
    <poly id="120746366" type="building.yes" color="255,230,230" fill="1" layer="-1.00" shape="4375.371301,2267.618837 4401.464996,2265.517699 4399.553253,2244.929483 4377.086637,2246.396774 4377.468996,2250.768013 4374.647862,2251.012606 4375.371301,2267.618837"/>
    <poly id="120746367" type="building.yes" color="255,230,230" fill="1" layer="-1.00" shape="4374.726381,2342.741594 4405.313721,2353.198187 4427.646316,2288.198099 4430.549339,2289.188161 4433.493819,2280.634942 4398.561776,2268.687547 4395.876949,2276.517821 4385.460160,2272.958129 4382.058045,2282.857206 4384.585395,2283.713754 4380.875870,2294.513759 4383.389552,2295.370306 4379.898647,2305.525204 4382.180082,2306.303882 4374.460510,2328.760337 4378.996036,2330.317689 4374.726381,2342.741594"/>
    <poly id="120746368" type="building.office" color="255,230,230" fill="1" layer="-1.00" shape="4414.589587,2357.169410 4443.712691,2279.812378 4456.752365,2284.707060 4452.666989,2295.562604 4449.094009,2305.050086 4427.984326,2361.118602 4432.752036,2362.909591 4431.911756,2365.145215 4430.996330,2367.569921 4419.193175,2363.153641 4420.593634,2359.416475 4414.589587,2357.169410"/>
    <poly id="120746392" type="building.garages" color="255,230,230" fill="1" layer="-1.00" shape="4406.267444,2256.352796 4405.543744,2248.021855 4415.824159,2247.132500 4415.394045,2242.171752 4455.682419,2238.681232 4455.081678,2231.773998 4461.974025,2231.173747 4462.922908,2242.062932 4455.969098,2242.674300 4456.781462,2251.972928 4406.267444,2256.352796"/>
    <poly id="128214248" type="building.apartments" color="255,230,230" fill="1" layer="-1.00" shape="4026.396126,2981.429327 4029.803884,2971.674590 4027.905173,2970.973920 4001.268539,2961.698506 3997.840342,2971.486632 4024.483759,2980.762027 4026.396126,2981.429327"/>
    <poly id="131237164" type="building.apartments" color="255,230,230" fill="1" layer="-1.00" shape="3928.650993,2908.234867 3933.991215,2893.408004 3940.684660,2895.810172 3939.680801,2898.590903 3956.434866,2904.596358 3952.091620,2916.642469 3928.650993,2908.234867"/>
    <poly id="139960900" type="building.yes" color="255,230,230" fill="1" layer="-1.00" shape="3207.363561,2760.849132 3221.742489,2733.829222 3203.654358,2724.222759 3192.184023,2745.736390 3186.220636,2742.345164 3183.325868,2748.296405 3207.363561,2760.849132"/>
    <poly id="139960901" type="building.yes" color="255,230,230" fill="1" layer="-1.00" shape="3170.389205,2746.308082 3180.214189,2728.787792 3188.776112,2713.503442 3174.895619,2705.764853 3156.508773,2738.558422 3170.389205,2746.308082"/>
    <poly id="140255120" type="landuse.grass" color="194,194,130" fill="1" layer="-3.00" shape="4198.766730,2948.014032 4196.854363,2953.530898 4196.410421,2955.299410 4195.788906,2955.188182 4192.824751,2960.415857 4190.652862,2967.378679 4185.120715,2979.813882 4178.564093,2974.608457 4175.190157,2970.915721 4171.638635,2965.799280 4168.729108,2960.226808 4167.117250,2956.000181 4166.352292,2952.452036 4166.639128,2948.458978 4167.219656,2946.267800 4169.063753,2956.055786 4171.262958,2955.332801 4170.709718,2948.659171 4171.262923,2945.188880 4172.082499,2943.353628 4174.281708,2941.896545 4177.949338,2940.528441 4180.879346,2940.072405 4183.624950,2940.617414 4187.196966,2942.174593 4190.447977,2944.910783 4192.018841,2947.302169 4193.446277,2949.738046 4194.989822,2949.259770 4194.429778,2946.512458 4191.943716,2942.486030 4194.661995,2944.766191 4198.766730,2948.014032"/>
    <poly id="140255488" type="building.apartments" color="255,230,230" fill="1" layer="-1.00" shape="4139.141753,2907.249497 4148.894883,2910.708575 4147.330875,2915.313394 4128.418824,2908.906901 4129.798422,2905.403227 4144.612135,2865.383529 4153.436469,2868.642415 4139.141753,2907.249497"/>
    <poly id="140255491" type="building.apartments" color="255,230,230" fill="1" layer="-1.00" shape="4130.508564,2890.988174 4130.843220,2890.087230 4129.422589,2889.564479 4128.780559,2888.174146 4132.905712,2877.106993 4134.415122,2876.317263 4135.651347,2876.773281 4136.040643,2875.716618 4120.782463,2870.066462 4120.386340,2871.112003 4121.991387,2871.712608 4122.592443,2873.247535 4118.439991,2884.403680 4117.087672,2884.993203 4115.646548,2884.459334 4115.318724,2885.360279 4130.508564,2890.988174"/>
    <poly id="140256617" type="building.apartments" color="255,230,230" fill="1" layer="-1.00" shape="4106.289740,2896.738963 4102.437642,2895.326443 4102.615211,2894.848163 4099.411957,2893.669211 4101.208141,2888.808551 4099.951426,2888.341419 4107.504995,2867.942222 4110.448724,2869.021078 4111.903444,2865.105859 4117.271823,2867.085622 4106.289740,2896.738963"/>
    <poly id="140256618" type="building.apartments" color="255,230,230" fill="1" layer="-1.00" shape="4111.903444,2865.105859 4095.914393,2859.211090 4099.889244,2848.488717 4100.169259,2847.732367 4121.519902,2855.595794 4121.103289,2856.730317 4117.271823,2867.085622 4111.903444,2865.105859"/>
    <poly id="140256619" type="building.apartments" color="255,230,230" fill="1" layer="-1.00" shape="4095.914393,2859.211090 4094.268454,2863.660209 4089.494274,2861.902913 4091.563645,2856.319267 4070.895962,2848.689529 4074.447333,2839.101662 4099.889244,2848.488717 4095.914393,2859.211090"/>
    <poly id="140256893" type="building.apartments" color="255,230,230" fill="1" layer="-1.00" shape="4157.999150,2912.510392 4138.718923,2969.347650 4130.051849,2966.422469 4131.192392,2963.219112 4137.728335,2943.598561 4131.328737,2941.429700 4134.996254,2930.673989 4141.382205,2932.831731 4147.330875,2915.313394 4148.894883,2910.708575 4152.494249,2911.920924 4152.876715,2910.775281 4157.999150,2912.510392"/>
    <poly id="140256895" type="building.apartments" color="255,230,230" fill="1" layer="-1.00" shape="4101.045469,2959.382213 4106.126894,2961.172884 4109.302621,2952.207920 4119.697692,2955.878262 4118.666427,2958.792429 4131.192392,2963.219112 4130.051849,2966.422469 4125.646771,2978.835479 4097.794645,2969.014548 4101.045469,2959.382213"/>
    <poly id="140256896" type="building.apartments" color="255,230,230" fill="1" layer="-1.00" shape="4054.008202,2951.519504 4046.877774,2949.005968 4046.297284,2950.652147 4035.458203,2946.826254 4037.602591,2940.764305 4039.023217,2941.264785 4039.521754,2939.863307 4038.989020,2939.674237 4041.843663,2931.632425 4053.311125,2935.680768 4052.689656,2937.438175 4058.297025,2939.417869 4054.008202,2951.519504"/>
    <poly id="140257376" type="building.apartments" color="255,230,230" fill="1" layer="-1.00" shape="3908.629904,2861.453800 3941.619214,2872.852832 3945.580026,2861.440727 3912.590650,2850.052790 3908.629904,2861.453800"/>
    <poly id="140257377" type="building.apartments" color="255,230,230" fill="1" layer="-1.00" shape="3988.650917,2889.145495 3992.789370,2876.899216 3989.770494,2875.887168 3990.391946,2874.051895 3974.477931,2868.691406 3973.856484,2870.526682 3970.304855,2869.336706 3966.159621,2881.571882 3988.650917,2889.145495"/>
    <poly id="140257378" type="building.apartments" color="255,230,230" fill="1" layer="-1.00" shape="3974.801359,2924.783268 3952.091620,2916.642469 3956.434866,2904.596358 3956.906068,2903.272732 3979.615861,2911.424676 3974.801359,2924.783268"/>
    <poly id="140257379" type="building.apartments" color="255,230,230" fill="1" layer="-1.00" shape="3999.027189,2931.211214 4003.651074,2932.868325 4002.913524,2934.914933 4014.640552,2939.118896 4022.302941,2917.863114 4010.309501,2913.559038 4007.482211,2921.400659 4003.124686,2919.843639 3999.027189,2931.211214"/>
    <poly id="140257381" type="building.apartments" color="255,230,230" fill="1" layer="-1.00" shape="3912.590650,2850.052790 3918.852762,2832.011395 3907.166389,2827.974499 3896.943593,2857.416927 3908.629904,2861.453800 3912.590650,2850.052790"/>
    <poly id="140257484" type="building.office" color="255,230,230" fill="1" layer="-1.00" shape="3887.643317,2667.930868 3892.553468,2654.750154 3905.148720,2659.409835 4000.971584,2694.897866 4014.317962,2699.835865 4009.086546,2713.884042 3989.335826,2766.940158 3984.391383,2780.232007 3970.717344,2775.227366 3947.480972,2766.619459 3949.236081,2761.936710 3952.234109,2753.805860 3975.559327,2762.491644 3975.805182,2761.824271 3976.904847,2762.235764 3996.614475,2709.279705 3995.753861,2708.968303 3996.307048,2707.488960 3900.040420,2671.834203 3899.815057,2672.434843 3887.643317,2667.930868"/>
    <poly id="140258230" type="building.apartments" color="255,230,230" fill="1" layer="-1.00" shape="3853.947638,2838.533269 3840.153840,2878.331309 3813.516395,2869.568552 3808.857522,2858.568537 3819.844573,2826.701117 3829.809815,2830.159551 3853.947638,2838.533269"/>
    <poly id="140258231" type="building.apartments" color="255,230,230" fill="1" layer="-1.00" shape="3846.735457,2842.849376 3839.941017,2862.781762 3823.364291,2857.355070 3822.824769,2857.977982 3821.656804,2857.433055 3822.319179,2855.653371 3823.371009,2855.831257 3824.054005,2855.808961 3824.996519,2855.508578 3825.372120,2854.863433 3825.522327,2854.140445 3825.440277,2852.916952 3827.611763,2846.765930 3828.260624,2846.943846 3830.029284,2842.705962 3829.537513,2842.550280 3831.674900,2836.977643 3846.735457,2842.849376"/>
    <poly id="140258406" type="building.apartments" color="255,230,230" fill="1" layer="-1.00" shape="3840.153840,2878.331309 3848.882703,2881.166996 3870.604655,2817.510233 3862.155720,2814.618876 3859.635927,2821.971159 3853.947638,2838.533269 3840.153840,2878.331309"/>
    <poly id="140258410" type="building.apartments" color="255,230,230" fill="1" layer="-1.00" shape="3860.885310,2814.240787 3842.867253,2808.068903 3844.710991,2802.696502 3846.152081,2801.962303 3856.554485,2805.531987 3859.231346,2797.768151 3849.614403,2794.465353 3848.719550,2792.785884 3850.044284,2788.425687 3867.215455,2794.286216 3860.885310,2814.240787"/>
    <poly id="140258662" type="building.apartments" color="255,230,230" fill="1" layer="-1.00" shape="3899.137983,2774.229987 3934.593599,2786.552014 3929.874726,2800.066360 3894.419195,2787.744367 3899.137983,2774.229987"/>