<?xml version="1.0" encoding="UTF-8"?>

<!-- generated on 2021-05-10 21:33:28 by Eclipse SUMO duarouter Version 1.9.1
<configuration xmlns:xsi="http://www.w3.org/2001/XMLSchema-instance" xsi:noNamespaceSchemaLocation="http://sumo.dlr.de/xsd/duarouterConfiguration.xsd">

    <input>
        <net-file value="/home/chris/Documents/STUDIA/Praca_mgr/V2X/2021-05-10-21-33-11/osm.net.xml"/>
        <route-files value="/home/chris/Documents/STUDIA/Praca_mgr/V2X/2021-05-10-21-33-11/osm.passenger.trips.xml"/>
    </input>

    <output>
        <output-file value="/home/chris/Documents/STUDIA/Praca_mgr/V2X/2021-05-10-21-33-11/osm.passenger.trips.xml.tmp"/>
        <write-trips value="true"/>
    </output>

    <time>
        <begin value="0"/>
        <end value="3600"/>
    </time>

    <report>
        <no-warnings value="true"/>
        <ignore-errors value="true"/>
        <no-step-log value="true"/>
    </report>

</configuration>
-->

<routes xmlns:xsi="http://www.w3.org/2001/XMLSchema-instance" xsi:noNamespaceSchemaLocation="http://sumo.dlr.de/xsd/routes_file.xsd">
    <vType id="veh_passenger" vClass="passenger"/>
    <trip id="veh0" type="veh_passenger" depart="0.00" departLane="best" from="352950103#3" to="-19405889#4"/>
    <trip id="veh3" type="veh_passenger" depart="16.63" departLane="best" from="653721860#1" to="-4945809#4"/>
    <trip id="veh4" type="veh_passenger" depart="22.18" departLane="best" from="240542192#2" to="-19851812#0"/>
    <trip id="veh6" type="veh_passenger" depart="33.27" departLane="best" from="-19405889#5" to="121807759#2"/>
    <trip id="veh7" type="veh_passenger" depart="38.81" departLane="best" departSpeed="max" from="378930774#0" to="306173242#2"/>
    <trip id="veh8" type="veh_passenger" depart="44.36" departLane="best" departSpeed="max" from="134379654#0" to="306549244#0"/>
    <trip id="veh9" type="veh_passenger" depart="49.90" departLane="best" from="4945811#0" to="-11413369#7"/>
    <trip id="veh10" type="veh_passenger" depart="55.45" departLane="best" from="4945809#5" to="437082172#1"/>
    <trip id="veh11" type="veh_passenger" depart="60.99" departLane="best" from="191461058#4" to="11413369#3"/>
    <trip id="veh12" type="veh_passenger" depart="66.54" departLane="best" from="881951134" to="191552163#0"/>
    <trip id="veh13" type="veh_passenger" depart="72.08" departLane="best" departSpeed="max" from="-476535909#1" to="-4946009#5"/>
    <trip id="veh14" type="veh_passenger" depart="77.63" departLane="best" from="4968925#1" to="307512370#2"/>
    <trip id="veh15" type="veh_passenger" depart="83.17" departLane="best" from="4945810#2" to="476535909#1"/>
    <trip id="veh16" type="veh_passenger" depart="88.72" departLane="best" from="306287821#0" to="902283750"/>
    <trip id="veh17" type="veh_passenger" depart="94.26" departLane="best" from="204389800#2" to="306173242#2"/>
    <trip id="veh18" type="veh_passenger" depart="99.81" departLane="best" from="4946009#5" to="307576634#0"/>
    <trip id="veh19" type="veh_passenger" depart="105.35" departLane="best" from="4968925#7" to="306287820#1"/>
    <trip id="veh20" type="veh_passenger" depart="110.90" departLane="best" departSpeed="max" from="450665381#0" to="-306173248#4"/>
    <trip id="veh21" type="veh_passenger" depart="116.44" departLane="best" departSpeed="max" from="137020850#0" to="173671300#2"/>
    <trip id="veh22" type="veh_passenger" depart="121.99" departLane="best" from="-436225029#1" to="137455168#0"/>
    <trip id="veh23" type="veh_passenger" depart="127.53" departLane="best" from="-4945902#4" to="148750391#0"/>
    <trip id="veh24" type="veh_passenger" depart="133.08" departLane="best" from="352950103#0" to="19851812#1"/>
    <trip id="veh25" type="veh_passenger" depart="138.62" departLane="best" departSpeed="max" from="19853890#0" to="124427081#2"/>
    <trip id="veh26" type="veh_passenger" depart="144.17" departLane="best" departSpeed="max" from="143461237#0" to="878009074"/>
    <trip id="veh27" type="veh_passenger" depart="149.71" departLane="best" departSpeed="max" from="378930774#0" to="307576632"/>
    <trip id="veh28" type="veh_passenger" depart="155.26" departLane="best" from="115664857#0" to="476535909#1"/>
    <trip id="veh29" type="veh_passenger" depart="160.80" departLane="best" from="11413369#3" to="229263499#3"/>
    <trip id="veh30" type="veh_passenger" depart="166.35" departLane="best" from="937407813#1" to="307964675#0"/>
    <trip id="veh32" type="veh_passenger" depart="177.44" departLane="best" from="4946015#0" to="4945611#2"/>
    <trip id="veh33" type="veh_passenger" depart="182.98" departLane="best" departSpeed="max" from="137020850#0" to="-19851812#0"/>
    <trip id="veh34" type="veh_passenger" depart="188.53" departLane="best" from="173671303#2" to="147122932#3"/>
    <trip id="veh35" type="veh_passenger" depart="194.07" departLane="best" departSpeed="max" from="130196225#0" to="878181278#1"/>
    <trip id="veh36" type="veh_passenger" depart="199.62" departLane="best" from="525410919#1" to="175217854#0"/>
    <trip id="veh37" type="veh_passenger" depart="205.16" departLane="best" from="41790009" to="236376955#1"/>
    <trip id="veh38" type="veh_passenger" depart="210.71" departLane="best" from="8114775#2" to="303165545#1"/>
    <trip id="veh39" type="veh_passenger" depart="216.25" departLane="best" from="143461236#1" to="137455174#0"/>
    <trip id="veh40" type="veh_passenger" depart="221.80" departLane="best" from="307576632" to="143461269#0"/>
    <trip id="veh41" type="veh_passenger" depart="227.34" departLane="best" from="307723177#4" to="805552660"/>
    <trip id="veh43" type="veh_passenger" depart="238.43" departLane="best" from="937407819" to="306169507#2"/>
    <trip id="veh44" type="veh_passenger" depart="243.98" departLane="best" departSpeed="max" from="-476535909#1" to="-306173248#4"/>
    <trip id="veh45" type="veh_passenger" depart="249.52" departLane="best" from="-307964674#4" to="229602170"/>
    <trip id="veh46" type="veh_passenger" depart="255.07" departLane="best" from="937407817#0" to="306169511#2"/>
    <trip id="veh47" type="veh_passenger" depart="260.61" departLane="best" departSpeed="max" from="900170248#0" to="5080040"/>
    <trip id="veh48" type="veh_passenger" depart="266.16" departLane="best" from="-143461236#0" to="471935345#2"/>
    <trip id="veh49" type="veh_passenger" depart="271.70" departLane="best" from="437082172#2" to="306173240#1"/>
    <trip id="veh50" type="veh_passenger" depart="277.25" departLane="best" departSpeed="max" from="143461237#0" to="307964675#1"/>
    <trip id="veh51" type="veh_passenger" depart="282.79" departLane="best" from="-4949552#1" to="27612810#0"/>
    <trip id="veh52" type="veh_passenger" depart="288.34" departLane="best" from="301706286" to="878181335"/>
    <trip id="veh53" type="veh_passenger" depart="293.88" departLane="best" from="525410919#0" to="143461269#2"/>
    <trip id="veh54" type="veh_passenger" depart="299.43" departLane="best" from="306169511#2" to="116934894#2"/>
    <trip id="veh55" type="veh_passenger" depart="304.97" departLane="best" from="8114775#0" to="525410919#0"/>
    <trip id="veh56" type="veh_passenger" depart="310.52" departLane="best" from="173671300#1" to="307964674#5"/>
    <trip id="veh57" type="veh_passenger" depart="316.06" departLane="best" departSpeed="max" from="328686965" to="107613844#2"/>
    <trip id="veh58" type="veh_passenger" depart="321.61" departLane="best" from="4936860" to="306173240#1"/>
    <trip id="veh59" type="veh_passenger" depart="327.15" departLane="best" from="4936865#0-AddedOffRampEdge" to="306169511#4"/>
    <trip id="veh60" type="veh_passenger" depart="332.69" departLane="best" from="-10504961" to="191461058#2"/>
    <trip id="veh61" type="veh_passenger" depart="338.24" departLane="best" from="-19405889#1" to="875550729#2"/>
    <trip id="veh62" type="veh_passenger" depart="343.78" departLane="best" from="525410921#1" to="4946013#1"/>
    <trip id="veh63" type="veh_passenger" depart="349.33" departLane="best" from="173671303#0" to="-307964674#4"/>
    <trip id="veh64" type="veh_passenger" depart="354.87" departLane="best" from="525410921#0" to="878181304#1"/>
    <trip id="veh65" type="veh_passenger" depart="360.42" departLane="best" from="-473269382#1" to="305569805#0"/>
    <trip id="veh66" type="veh_passenger" depart="365.96" departLane="best" from="-332052796#0" to="4936890#0"/>
    <trip id="veh67" type="veh_passenger" depart="371.51" departLane="best" from="4936864#0" to="-875550729#0"/>
    <trip id="veh68" type="veh_passenger" depart="377.05" departLane="best" from="305965047#1" to="306173242#2"/>
    <trip id="veh69" type="veh_passenger" depart="382.60" departLane="best" from="143461236#1" to="525410919#2"/>
    <trip id="veh70" type="veh_passenger" depart="388.14" departLane="best" from="306287821#0" to="476535909#1"/>
    <trip id="veh71" type="veh_passenger" depart="393.69" departLane="best" from="124427081#1" to="175217853#0"/>
    <trip id="veh72" type="veh_passenger" depart="399.23" departLane="best" from="937407817#0" to="332029541#1"/>
    <trip id="veh74" type="veh_passenger" depart="410.32" departLane="best" from="-525410919#1" to="137455168#0"/>
    <trip id="veh75" type="veh_passenger" depart="415.87" departLane="best" from="191461058#3" to="306549192#1"/>
    <trip id="veh76" type="veh_passenger" depart="421.41" departLane="best" from="-334608794" to="307723177#4"/>
    <trip id="veh77" type="veh_passenger" depart="426.96" departLane="best" departSpeed="max" from="137020850#0" to="8114774#3"/>
    <trip id="veh78" type="veh_passenger" depart="432.50" departLane="best" from="4968925#7" to="-378930774#0"/>
    <trip id="veh79" type="veh_passenger" depart="438.05" departLane="best" departSpeed="max" from="130196225#0" to="-875550729#3"/>
    <trip id="veh80" type="veh_passenger" depart="443.59" departLane="best" from="305965047#0" to="4945615#1"/>
    <trip id="veh81" type="veh_passenger" depart="449.14" departLane="best" from="4945810#2" to="117358265#2"/>
    <trip id="veh82" type="veh_passenger" depart="454.68" departLane="best" from="-4945809#4" to="27612799#0"/>
    <trip id="veh83" type="veh_passenger" depart="460.23" departLane="best" from="260449766#1" to="303165552#3"/>
    <trip id="veh84" type="veh_passenger" depart="465.77" departLane="best" from="937407807" to="-4946009#7"/>
    <trip id="veh85" type="veh_passenger" depart="471.32" departLane="best" from="236376955#2" to="191552163#1"/>
    <trip id="veh86" type="veh_passenger" depart="476.86" departLane="best" from="4968925#7" to="137455174#1"/>
    <trip id="veh87" type="veh_passenger" depart="482.41" departLane="best" from="117358265#2" to="298376228#3"/>
    <trip id="veh88" type="veh_passenger" depart="487.95" departLane="best" from="240542192#2" to="148750391#0"/>
    <trip id="veh89" type="veh_passenger" depart="493.50" departLane="best" from="137455170#1" to="85686065#3"/>
    <trip id="veh90" type="veh_passenger" depart="499.04" departLane="best" from="27612811" to="5080040"/>
    <trip id="veh91" type="veh_passenger" depart="504.59" departLane="best" from="307485359#0" to="-307723177#0"/>
    <trip id="veh92" type="veh_passenger" depart="510.13" departLane="best" from="99248712#1" to="4946016#0"/>
    <trip id="veh93" type="veh_passenger" depart="515.68" departLane="best" from="899203346#1" to="875550729#0"/>
    <trip id="veh94" type="veh_passenger" depart="521.22" departLane="best" from="4968925#1" to="115664857#6"/>
    <trip id="veh96" type="veh_passenger" depart="532.31" departLane="best" from="236376955#1" to="-308031464#0"/>
    <trip id="veh97" type="veh_passenger" depart="537.86" departLane="best" from="204389800#2" to="937407813#0"/>
    <trip id="veh99" type="veh_passenger" depart="548.95" departLane="best" from="301706286" to="27612796#1"/>
    <trip id="veh100" type="veh_passenger" depart="554.49" departLane="best" from="881951134" to="99248712#1"/>
    <trip id="veh101" type="veh_passenger" depart="560.04" departLane="best" from="307485360" to="466521404#0"/>
    <trip id="veh102" type="veh_passenger" depart="565.58" departLane="best" departSpeed="max" from="-99248712#3" to="173671303#0"/>
    <trip id="veh103" type="veh_passenger" depart="571.13" departLane="best" from="899203346#0" to="306287820#1"/>
    <trip id="veh106" type="veh_passenger" depart="587.76" departLane="best" from="306169511#4" to="4968925#7"/>
    <trip id="veh107" type="veh_passenger" depart="593.31" departLane="best" from="10504963#1" to="881951135#1"/>
    <trip id="veh108" type="veh_passenger" depart="598.85" departLane="best" from="-436225029#1" to="117358265#1"/>
    <trip id="veh109" type="veh_passenger" depart="604.40" departLane="best" departSpeed="max" from="137020850#0" to="-851904730#0"/>
    <trip id="veh110" type="veh_passenger" depart="609.94" departLane="best" from="570082852#1" to="137455174#0"/>
    <trip id="veh111" type="veh_passenger" depart="615.49" departLane="best" from="307964675#1" to="307576634#0"/>
    <trip id="veh113" type="veh_passenger" depart="626.58" departLane="best" from="306173248#2" to="875550729#2"/>
    <trip id="veh114" type="veh_passenger" depart="632.12" departLane="best" from="124427099#0" to="457865128#2"/>
    <trip id="veh115" type="veh_passenger" depart="637.67" departLane="best" departSpeed="max" from="137020850#0" to="236376955#1"/>
    <trip id="veh116" type="veh_passenger" depart="643.21" departLane="best" from="437082171#0" to="173671303#1"/>
    <trip id="veh118" type="veh_passenger" depart="654.30" departLane="best" from="-346387364#2" to="302956350"/>
    <trip id="veh119" type="veh_passenger" depart="659.84" departLane="best" from="937407819" to="99248712#3"/>
    <trip id="veh122" type="veh_passenger" depart="676.48" departLane="best" from="525410921#3" to="570082844"/>
    <trip id="veh123" type="veh_passenger" depart="682.02" departLane="best" departSpeed="max" from="19853890#0" to="11413369#5"/>
    <trip id="veh124" type="veh_passenger" depart="687.57" departLane="best" departSpeed="max" from="328686965" to="937407813#2"/>
    <trip id="veh125" type="veh_passenger" depart="693.11" departLane="best" from="41716379#1" to="-11413369#8"/>
    <trip id="veh126" type="veh_passenger" depart="698.66" departLane="best" from="4945816#2" to="173671303#1"/>
    <trip id="veh127" type="veh_passenger" depart="704.20" departLane="best" from="436225029#4" to="878181278#0"/>
    <trip id="veh128" type="veh_passenger" depart="709.75" departLane="best" from="-4946009#5" to="306173242#2"/>
    <trip id="veh130" type="veh_passenger" depart="720.84" departLane="best" from="453410689#1" to="121807759#5"/>
    <trip id="veh131" type="veh_passenger" depart="726.38" departLane="best" from="352950103#0" to="143461274#0"/>
    <trip id="veh132" type="veh_passenger" depart="731.93" departLane="best" from="306169509#1" to="8114774#3"/>
    <trip id="veh133" type="veh_passenger" depart="737.47" departLane="best" from="4949552#1" to="-4946009#10"/>
    <trip id="veh134" type="veh_passenger" depart="743.02" departLane="best" from="260449766#1" to="147753157"/>
    <trip id="veh135" type="veh_passenger" depart="748.56" departLane="best" from="-11413369#2" to="4945611#2"/>
    <trip id="veh136" type="veh_passenger" depart="754.11" departLane="best" from="352950103#2" to="143461242#2"/>
    <trip id="veh137" type="veh_passenger" depart="759.65" departLane="best" departSpeed="max" from="4925295#0" to="306173242#2"/>
    <trip id="veh138" type="veh_passenger" depart="765.20" departLane="best" from="27612796#0" to="-116934895#0"/>
    <trip id="veh139" type="veh_passenger" depart="770.74" departLane="best" from="-381436621#1" to="570082851#5"/>
    <trip id="veh140" type="veh_passenger" depart="776.29" departLane="best" from="805552660" to="306173242#2"/>
    <trip id="veh142" type="veh_passenger" depart="787.38" departLane="best" from="-875550729#3" to="-85686065#5"/>
    <trip id="veh143" type="veh_passenger" depart="792.92" departLane="best" from="4945615#1" to="5080040"/>
    <trip id="veh145" type="veh_passenger" depart="804.01" departLane="best" from="4936865#0-AddedOffRampEdge" to="570082852#0"/>
    <trip id="veh146" type="veh_passenger" depart="809.56" departLane="best" departSpeed="max" from="-99248712#3" to="875550729#2"/>
    <trip id="veh147" type="veh_passenger" depart="815.10" departLane="best" from="4990554#2" to="934535005#2"/>
    <trip id="veh148" type="veh_passenger" depart="820.65" departLane="best" from="4945812#1" to="570082851#2"/>
    <trip id="veh150" type="veh_passenger" depart="831.74" departLane="best" from="185123964#0" to="875550729#2"/>
    <trip id="veh152" type="veh_passenger" depart="842.83" departLane="best" from="4945812#1" to="147122932#1"/>
    <trip id="veh154" type="veh_passenger" depart="853.92" departLane="best" from="5080041#0" to="500860876#0"/>
    <trip id="veh155" type="veh_passenger" depart="859.46" departLane="best" from="134379654#1" to="4945904"/>
    <trip id="veh156" type="veh_passenger" depart="865.01" departLane="best" from="302956350" to="173671303#2"/>
    <trip id="veh157" type="veh_passenger" depart="870.55" departLane="best" from="4945615#1" to="137455168#0"/>
    <trip id="veh158" type="veh_passenger" depart="876.10" departLane="best" from="888753911#1" to="148750391#0"/>
    <trip id="veh159" type="veh_passenger" depart="881.64" departLane="best" from="378106107#0" to="236376955#3"/>
    <trip id="veh160" type="veh_passenger" depart="887.19" departLane="best" from="934535005#2" to="306169512#2"/>
    <trip id="veh161" type="veh_passenger" depart="892.73" departLane="best" from="878181278#0" to="-653721860#0"/>
    <trip id="veh162" type="veh_passenger" depart="898.28" departLane="best" departSpeed="max" from="900170248#0" to="116934894#2"/>
    <trip id="veh163" type="veh_passenger" depart="903.82" departLane="best" from="881951135#2" to="147122932#0"/>
    <trip id="veh164" type="veh_passenger" depart="909.37" departLane="best" from="-4946009#7" to="27612810#0"/>
    <trip id="veh165" type="veh_passenger" depart="914.91" departLane="best" from="473269382#0" to="175217853#0"/>
    <trip id="veh166" type="veh_passenger" depart="920.46" departLane="best" departSpeed="max" from="328686965" to="306169507#5"/>
    <trip id="veh167" type="veh_passenger" depart="926.00" departLane="best" from="229263499#3" to="306287820#1"/>
    <trip id="veh168" type="veh_passenger" depart="931.55" departLane="best" from="137455170#2" to="453410687#0"/>
    <trip id="veh169" type="veh_passenger" depart="937.09" departLane="best" from="-10504963#1" to="875550729#0"/>
    <trip id="veh170" type="veh_passenger" depart="942.64" departLane="best" from="306287821#0" to="466521404#1"/>
    <trip id="veh171" type="veh_passenger" depart="948.18" departLane="best" departSpeed="max" from="4925295#0" to="378106118#2"/>
    <trip id="veh172" type="veh_passenger" depart="953.73" departLane="best" departSpeed="max" from="19851812#0" to="-378930774#0"/>
    <trip id="veh173" type="veh_passenger" depart="959.27" departLane="best" from="437082169#0" to="191461058#5"/>
    <trip id="veh174" type="veh_passenger" depart="964.82" departLane="best" from="173671303#2" to="4968925#5"/>
    <trip id="veh175" type="veh_passenger" depart="970.36" departLane="best" from="457865128#2" to="173671303#1"/>
    <trip id="veh176" type="veh_passenger" depart="975.91" departLane="best" from="173671303#0" to="240503410#0"/>
    <trip id="veh177" type="veh_passenger" depart="981.45" departLane="best" from="236376955#2" to="173671300#3"/>
    <trip id="veh178" type="veh_passenger" depart="986.99" departLane="best" from="-570082852#0" to="27612796#0"/>
    <trip id="veh179" type="veh_passenger" depart="992.54" departLane="best" from="878181278#1" to="41790009"/>
    <trip id="veh180" type="veh_passenger" depart="998.08" departLane="best" from="781364670#1" to="307576633#1"/>
    <trip id="veh181" type="veh_passenger" depart="1003.63" departLane="best" from="173671300#2" to="306173242#2"/>
    <trip id="veh182" type="veh_passenger" depart="1009.17" departLane="best" from="-10504961" to="173671300#1"/>
    <trip id="veh184" type="veh_passenger" depart="1020.26" departLane="best" from="41716379#2" to="303165552#3"/>
    <trip id="veh186" type="veh_passenger" depart="1031.35" departLane="best" from="4945615#1" to="116934894#2"/>
    <trip id="veh188" type="veh_passenger" depart="1042.44" departLane="best" from="346387364#1" to="191552163#0"/>
    <trip id="veh190" type="veh_passenger" depart="1053.53" departLane="best" from="437082172#0" to="137455168#0"/>
    <trip id="veh192" type="veh_passenger" depart="1064.62" departLane="best" from="137020850#4" to="303165606#1"/>
    <trip id="veh193" type="veh_passenger" depart="1070.17" departLane="best" from="4968925#1" to="-378930774#2"/>
    <trip id="veh194" type="veh_passenger" depart="1075.71" departLane="best" from="240503410#0" to="307723177#1"/>
    <trip id="veh195" type="veh_passenger" depart="1081.26" departLane="best" from="41790009" to="-11413369#4"/>
    <trip id="veh196" type="veh_passenger" depart="1086.80" departLane="best" from="-4946009#4" to="27612797#0"/>
    <trip id="veh197" type="veh_passenger" depart="1092.35" departLane="best" departSpeed="max" from="116934895#0" to="881951134"/>
    <trip id="veh198" type="veh_passenger" depart="1097.89" departLane="best" from="306173243#1" to="-307628906#6"/>
    <trip id="veh199" type="veh_passenger" depart="1103.44" departLane="best" from="137455170#0" to="4968925#5"/>
    <trip id="veh201" type="veh_passenger" depart="1114.53" departLane="best" from="437082170" to="937407813#2"/>
    <trip id="veh202" type="veh_passenger" depart="1120.07" departLane="best" from="307964675#2" to="878181305#1"/>
    <trip id="veh203" type="veh_passenger" depart="1125.62" departLane="best" from="653721860#0" to="307576633#0"/>
    <trip id="veh205" type="veh_passenger" depart="1136.71" departLane="best" from="4946009#6" to="306173242#2"/>
    <trip id="veh207" type="veh_passenger" depart="1147.80" departLane="best" from="305965047#1" to="143461242#2"/>
    <trip id="veh208" type="veh_passenger" depart="1153.34" departLane="best" from="137455170#0" to="307964674#3"/>
    <trip id="veh210" type="veh_passenger" depart="1164.43" departLane="best" from="-422113403" to="173671300#0"/>
    <trip id="veh211" type="veh_passenger" depart="1169.98" departLane="best" from="306287821#0" to="-937407817#0"/>
    <trip id="veh212" type="veh_passenger" depart="1175.52" departLane="best" departSpeed="max" from="137020850#0" to="437082172#0"/>
    <trip id="veh213" type="veh_passenger" depart="1181.07" departLane="best" departSpeed="max" from="450665381#0" to="-332052796#1"/>
    <trip id="veh214" type="veh_passenger" depart="1186.61" departLane="best" from="240503410#2" to="121807759#5"/>
    <trip id="veh215" type="veh_passenger" depart="1192.16" departLane="best" from="240542192#0" to="8114774#3"/>
    <trip id="veh216" type="veh_passenger" depart="1197.70" departLane="best" from="307723177#2" to="437082172#1"/>
    <trip id="veh217" type="veh_passenger" depart="1203.25" departLane="best" from="4968925#5" to="4945611#1"/>
    <trip id="veh218" type="veh_passenger" depart="1208.79" departLane="best" from="229263499#0" to="-11413369#5"/>
    <trip id="veh219" type="veh_passenger" depart="1214.34" departLane="best" from="4968925#3" to="878181335"/>
    <trip id="veh220" type="veh_passenger" depart="1219.88" departLane="best" from="240542192#0" to="4936859"/>
    <trip id="veh221" type="veh_passenger" depart="1225.43" departLane="best" from="306549244#0" to="307512370#2"/>
    <trip id="veh223" type="veh_passenger" depart="1236.52" departLane="best" from="27612797#2" to="-19851812#0"/>
    <trip id="veh224" type="veh_passenger" depart="1242.06" departLane="best" from="191461058#2" to="422113403"/>
    <trip id="veh225" type="veh_passenger" depart="1247.61" departLane="best" from="236376955#3" to="115664857#4"/>
    <trip id="veh226" type="veh_passenger" depart="1253.15" departLane="best" from="303165579" to="-85686065#5"/>
    <trip id="veh227" type="veh_passenger" depart="1258.70" departLane="best" from="328686966#1" to="-19405889#7"/>
    <trip id="veh228" type="veh_passenger" depart="1264.24" departLane="best" from="234544110#0" to="306173247#0"/>
    <trip id="veh229" type="veh_passenger" depart="1269.79" departLane="best" from="-19405889#7" to="308031464#1"/>
    <trip id="veh230" type="veh_passenger" depart="1275.33" departLane="best" from="-851904730#1" to="303165552#1"/>
    <trip id="veh231" type="veh_passenger" depart="1280.88" departLane="best" departSpeed="max" from="-30611695#1" to="229263499#3"/>
    <trip id="veh232" type="veh_passenger" depart="1286.42" departLane="best" departSpeed="max" from="130196225#0" to="191461058#3"/>
    <trip id="veh234" type="veh_passenger" depart="1297.51" departLane="best" from="4925295#3" to="4946013#1"/>
    <trip id="veh235" type="veh_passenger" depart="1303.06" departLane="best" from="137455170#1" to="-457865130"/>
    <trip id="veh236" type="veh_passenger" depart="1308.60" departLane="best" from="-19405889#1" to="306173240#1"/>
    <trip id="veh238" type="veh_passenger" depart="1319.69" departLane="best" departSpeed="max" from="378930774#0" to="4945612#1"/>
    <trip id="veh240" type="veh_passenger" depart="1330.78" departLane="best" from="878181305#1" to="121807759#2"/>
    <trip id="veh241" type="veh_passenger" depart="1336.32" departLane="best" departSpeed="max" from="-19405889#10" to="107613844#2"/>
    <trip id="veh242" type="veh_passenger" depart="1341.87" departLane="best" from="-570082851#5" to="378106118#1"/>
    <trip id="veh244" type="veh_passenger" depart="1352.96" departLane="best" departSpeed="max" from="450665381#0" to="4945611#2"/>
    <trip id="veh245" type="veh_passenger" depart="1358.50" departLane="best" from="11413369#9" to="307576629#0"/>
    <trip id="veh246" type="veh_passenger" depart="1364.05" departLane="best" departSpeed="max" from="4925295#0" to="-570082852#1"/>
    <trip id="veh247" type="veh_passenger" depart="1369.59" departLane="best" from="4945817#1" to="881951136#3"/>
    <trip id="veh248" type="veh_passenger" depart="1375.14" departLane="best" from="-4946009#6" to="-19405889#5"/>
    <trip id="veh249" type="veh_passenger" depart="1380.68" departLane="best" from="173671303#1" to="41790009"/>
    <trip id="veh250" type="veh_passenger" depart="1386.23" departLane="best" from="881951135#0" to="236376955#2"/>
    <trip id="veh251" type="veh_passenger" depart="1391.77" departLane="best" from="453410687#2" to="-422113403"/>
    <trip id="veh252" type="veh_passenger" depart="1397.32" departLane="best" departSpeed="max" from="448943006" to="307628906#6"/>
    <trip id="veh253" type="veh_passenger" depart="1402.86" departLane="best" from="-4945902#5" to="4945611#2"/>
    <trip id="veh254" type="veh_passenger" depart="1408.41" departLane="best" from="4968925#2" to="307512370#2"/>
    <trip id="veh255" type="veh_passenger" depart="1413.95" departLane="best" from="-525410919#1" to="937407808"/>
    <trip id="veh256" type="veh_passenger" depart="1419.50" departLane="best" from="4936890#0" to="191552163#1"/>
    <trip id="veh257" type="veh_passenger" depart="1425.04" departLane="best" from="306169511#5" to="191552163#1"/>
    <trip id="veh258" type="veh_passenger" depart="1430.59" departLane="best" from="4968925#1" to="4946009#6"/>
    <trip id="veh259" type="veh_passenger" depart="1436.13" departLane="best" from="-4946009#3" to="881951135#1"/>
    <trip id="veh260" type="veh_passenger" depart="1441.68" departLane="best" from="352950103#0" to="4946012#1"/>
    <trip id="veh261" type="veh_passenger" depart="1447.22" departLane="best" departSpeed="max" from="450665381#0" to="27612811"/>
    <trip id="veh263" type="veh_passenger" depart="1458.31" departLane="best" departSpeed="max" from="143461237#0" to="4945817#1"/>
    <trip id="veh264" type="veh_passenger" depart="1463.86" departLane="best" from="27612797#2" to="48647576#1"/>
    <trip id="veh265" type="veh_passenger" depart="1469.40" departLane="best" departSpeed="max" from="143461237#0" to="4968925#7"/>
    <trip id="veh266" type="veh_passenger" depart="1474.95" departLane="best" from="4946009#6" to="-4945809#4"/>
    <trip id="veh269" type="veh_passenger" depart="1491.58" departLane="best" from="204389800#2" to="-19405889#9"/>
    <trip id="veh270" type="veh_passenger" depart="1497.13" departLane="best" from="4968925#2" to="116934896#2"/>
    <trip id="veh271" type="veh_passenger" depart="1502.67" departLane="best" departSpeed="max" from="130196225#0" to="4945811#0"/>
    <trip id="veh272" type="veh_passenger" depart="1508.22" departLane="best" from="191461058#4" to="570082851#0"/>
    <trip id="veh273" type="veh_passenger" depart="1513.76" departLane="best" departSpeed="max" from="450665381#0" to="147753157"/>
    <trip id="veh274" type="veh_passenger" depart="1519.31" departLane="best" from="-124427099#1" to="878181305#0"/>
    <trip id="veh277" type="veh_passenger" depart="1535.94" departLane="best" from="306169509#1" to="4945809#2"/>
    <trip id="veh279" type="veh_passenger" depart="1547.03" departLane="best" departSpeed="max" from="448943006" to="173671303#3"/>
    <trip id="veh281" type="veh_passenger" depart="1558.12" departLane="best" from="306287820#0" to="27612797#0"/>
    <trip id="veh282" type="veh_passenger" depart="1563.67" departLane="best" departSpeed="max" from="4925295#0" to="191461058#5"/>
    <trip id="veh283" type="veh_passenger" depart="1569.21" departLane="best" departSpeed="max" from="450665381#0" to="147753134#0"/>
    <trip id="veh284" type="veh_passenger" depart="1574.76" departLane="best" from="137455170#1" to="-851904730#1"/>
    <trip id="veh285" type="veh_passenger" depart="1580.30" departLane="best" from="117358265#3" to="-851904730#0"/>
    <trip id="veh286" type="veh_passenger" depart="1585.85" departLane="best" from="306287820#1" to="4945608#0"/>